18
-3.8593481987195707e+02 frame 4   xyz file generated by TeraChem
     C     2.4329596822   -0.7087731185    0.0000202042
     C     2.4330891434    0.7091257708    0.0000266758
     C     1.2439268757    1.4043775415    0.0000205398
     C     0.0001207318    0.7165004726    0.0000075511
     C    -1.2439616971    1.4039199768    0.0000007749
     C    -2.4334935006    0.7092849021   -0.0000116761
     C    -2.4330452242   -0.7085972162   -0.0000181464
     C    -1.2440540304   -1.4042081225   -0.0000120044
     C     0.0002940761   -0.7173318063    0.0000010043
     C     1.2442881323   -1.4048882300    0.0000077585
     H     1.2393898919   -2.4920654910    0.0000028714
     H    -1.2391876773   -2.4913716078   -0.0000170970
     H    -3.3778060343   -1.2448808551   -0.0000281215
     H    -3.3782062169    1.2456921067   -0.0000168126
     H    -1.2384914755    2.4910759150    0.0000056772
     H     1.2384938281    2.4915451646    0.0000255615
     H     3.3778547779    1.2454222790    0.0000366064
     H     3.3778598170   -1.2448056817    0.0000253332
