22
-5.3754353672769457e+02 frame 15   xyz file generated by TeraChem
     C     0.4105021292   -1.6867350464   -0.0113152565
     C    -0.9889580772   -1.8059683203   -0.0802013821
     C    -1.7092287504   -0.6322993589   -0.1610974993
     C    -1.0768374630    0.6128237349   -0.1632027158
     C     0.2905125664    0.7455646258   -0.0920996114
     C     1.0638798972   -0.4436036967   -0.0195316973
     C     2.5315813508   -0.4225184029    0.0408636758
     C     3.3350418444    0.6511258571   -0.0154361839
     C     4.8321328840    0.5894202917    0.0448315807
     H     5.1881642732   -0.4409486337    0.1510147230
     H     5.2827724267    1.0170581235   -0.8615001455
     H     5.2200325046    1.1754989825    0.8893401964
     H     2.9047150772    1.6473391932   -0.1159118768
     H     2.9956706971   -1.4050949882    0.1333840305
     H     0.7512356482    1.7266557992   -0.0888464933
     O    -2.0261109528    1.6086921519   -0.2130265624
     C    -3.2789237909    0.9426286622   -0.4391118608
     H    -3.5951282876    1.1010840906   -1.4770162979
     H    -4.0214511273    1.3176358851    0.2677615382
     O    -3.0714805910   -0.4615674801   -0.2126630179
     H    -1.4792443406   -2.7733808069   -0.0699593031
     H     1.0092620817   -2.5912006637    0.0454341594
