15
-3.8370649613329130e+02 frame 6   xyz file generated by TeraChem
     C     0.9027822375   -1.4221529195    0.0000051272
     C     2.1232718744   -0.7448694976    0.0000059037
     C     2.1798664891    0.6625311127    0.0000072142
     C     1.0205226526    1.4352657600    0.0000078351
     C    -0.2193220876    0.7774011299    0.0000071274
     C    -0.2400389300   -0.6317012384    0.0000057529
     O    -1.5367745840   -1.0838770244    0.0000052105
     C    -2.3350783749    0.0409128804    0.0000063963
     C    -1.6065305740    1.1844804373    0.0000074847
     H    -1.9955489089    2.1931725237    0.0000084535
     H    -3.3973670426   -0.1535561657    0.0000062268
     H     1.0735742240    2.5200147562    0.0000088767
     H     3.1490403511    1.1529630518    0.0000077662
     H     3.0468266138   -1.3160430940    0.0000055118
     H     0.8438153594   -2.5055496123    0.0000041131
