9
-2.2981363877236427e+02 frame 4   xyz file generated by TeraChem
     C    -0.3394446262   -1.0840099475    0.0000118581
     C     1.0179239562   -0.6913696165    0.0000054458
     C     1.0178828030    0.6914439401    0.0000069567
     C    -0.3395163676    1.0839795647    0.0000142731
     O    -1.1482356765   -0.0000420667    0.0000173575
     H    -0.8262107365    2.0503000484    0.0000177140
     H     1.8622901128    1.3663866013    0.0000033462
     H     1.8623768271   -1.3662549386    0.0000004056
     H    -0.8260701923   -2.0503650852    0.0000132429
