9
-2.3003621713426904e+02 frame 4   xyz file generated by TeraChem
     C    -0.3162831674   -1.0994803637    0.0000118034
     C     0.9905404755   -0.7190433654    0.0000053507
     C     0.9904965032    0.7191147054    0.0000073275
     C    -0.3163562220    1.0994522801    0.0000140431
     O    -1.1316272175   -0.0000414216    0.0000171544
     H    -0.8188546875    2.0549596412    0.0000175114
     H     1.8508526579    1.3741055609    0.0000037747
     H     1.8509414858   -1.3739750386    0.0000000939
     H    -0.8187137281   -2.0550234982    0.0000135409
