17
-4.0197316363629693e+02 frame 6   xyz file generated by TeraChem
     C     1.2496699529   -1.4110537424   -0.0000997981
     C     2.4273715814   -0.6968317267   -0.0002056289
     C     2.4037045313    0.7207161075   -0.0002062226
     C     1.2056468637    1.4012300017   -0.0001068746
     C    -0.0245453858    0.6928871088    0.0000025825
     N    -1.1927298945    1.4063074746    0.0000996724
     C    -2.3256318232    0.7272355626    0.0002111393
     C    -2.4089575685   -0.6876303010    0.0002363498
     C    -1.2446985193   -1.4188926450    0.0001332383
     C    -0.0003739084   -0.7384226405    0.0000101215
     H    -1.2586393067   -2.5057471607    0.0001469119
     H    -3.3811260009   -1.1697320804    0.0003358540
     H    -3.2425820369    1.3150422347    0.0002936604
     H     1.1697930098    2.4864168478   -0.0001071062
     H     3.3404808821    1.2704949536   -0.0002853810
     H     3.3807827040   -1.2168800305   -0.0002906305
     H     1.2577167189   -2.4978760642   -0.0001011880
