9
-2.2622130733467731e+02 frame 7   xyz file generated by TeraChem
     C     0.4090632609    1.0980314030    0.0000154102
     C     1.2224670632   -0.0227512821   -0.0000027923
     C     0.3236687874   -1.1127563959    0.0000147180
     N    -0.9512059312   -0.7082009711   -0.0000498466
     N    -0.8678867237    0.6425707903   -0.0000182440
     H    -1.7158342281    1.1932807575   -0.0000291311
     H     0.5493814758   -2.1716644945    0.0000342158
     H     2.3024996087   -0.0473197808    0.0000037442
     H     0.6315624870    2.1553924736    0.0000354259
