5
-6.5758124321078995e+01 frame 34   xyz file generated by TeraChem
     C    -0.5838622417    0.6739046264    0.0862321353
     H    -0.2349949466    0.8504690432    1.0940352659
     H     0.0501361950    0.6899508779   -0.7888349738
    Br    -2.4575059419    1.0297501920   -0.2173900820
    Br     3.1671169352   -0.0010347395   -0.1932623455
