12
-7.0275802134936225e+02 frame 10   xyz file generated by TeraChem
     C    -2.1898710088    1.2219672094    0.0001017921
     C    -2.8626597714   -0.0000693708    0.0001119998
     C    -2.1899267899   -1.2221292316    0.0001223592
     C    -0.7866597317   -1.2192216962    0.0001225966
     C    -0.1359598374    0.0000924127    0.0001121586
     C    -0.7866039838    1.2194278484    0.0001019526
     H    -0.2455748052    2.1621207858    0.0000941190
     I     3.2095283102    0.0002034884    0.0001360265
     H    -0.2455421478   -2.1618598572    0.0001307812
     H    -2.7449041678   -2.1549796398    0.0001302090
    Cl    -4.6330998256   -0.0000403180    0.0001121318
     H    -2.7449416407    2.1547578689    0.0000940736
