12
-7.0265467963046990e+02 frame 5   xyz file generated by TeraChem
     C    -2.0920512353    1.2159101783    0.0000991099
     C    -2.7721467424   -0.0000179433    0.0001120992
     C    -2.0919758451   -1.2159051669    0.0001195747
     C    -0.6957093245   -1.2153471307    0.0001186584
     C    -0.0134275900    0.0000501465    0.0001105163
     C    -0.6957877452    1.2154042772    0.0000980929
     H    -0.1604306053    2.1577752293    0.0000916589
     I     2.1332374086    0.0001828671    0.0001468754
     H    -0.1603101263   -2.1576948548    0.0001283219
     H    -2.6369080622   -2.1534507962    0.0001293569
    Cl    -4.5336786583   -0.0000679197    0.0001226757
     H    -2.6370268739    2.1534306132    0.0000932599
