12
-2.5561832890200498e+02 frame 5   xyz file generated by TeraChem
     C    -1.3369697206    1.2186309686    0.0000920392
     C    -2.0063358691    0.0000120457    0.0000866087
     C    -1.3369962277   -1.2186212428    0.0000792204
     C     0.0606768125   -1.2159213206    0.0000800831
     C     0.7417479548   -0.0000098012    0.0000889572
     C     0.0607043389    1.2159163306    0.0000931448
     H     0.5963169001    2.1582019931    0.0000999672
     I     2.8880998882   -0.0000505434    0.0001155723
     H     0.5962754171   -2.1582146690    0.0000766804
     H    -1.8760430625   -2.1594526238    0.0000749971
    Br    -3.9785227077    0.0000306657    0.0000926931
     H    -1.8760015242    2.1594708970    0.0000975366
