12
-2.5572205140283489e+02 frame 11   xyz file generated by TeraChem
     C    -1.4327521648    1.2242759824    0.0000943925
     C    -2.0949896014    0.0000061892    0.0000871062
     C    -1.4327844707   -1.2242800775    0.0000814366
     C    -0.0278227491   -1.2190810187    0.0000830773
     C     0.6231410632    0.0000046858    0.0000902128
     C    -0.0277903603    1.2191065034    0.0000960806
     H     0.5125218884    2.1623166624    0.0001018154
     I     3.9420307368   -0.0000920619    0.0001053895
     H     0.5124862467   -2.1622922243    0.0000787709
     H    -1.9813101892   -2.1606902352    0.0000758202
    Br    -4.0785041948    0.0000305713    0.0000846712
     H    -1.9812740049    2.1606877231    0.0000987269
