8
-9.9914282517149616e+02 frame 5   xyz file generated by TeraChem
     C    -0.3099423144   -0.6156878650    0.0000453678
     C     0.3099425774    0.6156466748    0.0000544483
     H     0.4473225778    1.1656381856    0.9232482349
     H     0.4474590837    1.1657082461   -0.9230926766
    Cl     2.8119819586   -0.0194555173    0.0001138777
     H    -0.4474147067   -1.1658076479   -0.9230590662
     H    -0.4474384453   -1.1656758954    0.9232359978
    Cl    -2.8119686312    0.0194598190    0.0000955162
