5
-6.2193238228161910e+01 frame 6   xyz file generated by TeraChem
     C     0.0000066541    0.9819327202   -0.0000001767
     H     0.0000035729    1.5743710313   -0.9140566052
     H    -0.0000011328    1.5743698588    0.9140570404
     I    -2.3396799745    0.1292201928   -0.0000071596
     I     2.3396642803    0.1292299970    0.0000052011
