23
-4.6353732981652598e+02 frame 9   xyz file generated by TeraChem
     C     0.4157369766    1.0911294185   -0.0000829679
     C    -0.9500936076    1.3263632256   -0.0001309636
     C    -1.8573144170    0.2530388757   -0.0000857949
     C    -1.3698505440   -1.0578600452    0.0000062038
     C     0.0098928201   -1.2761913202    0.0000543681
     C     0.9344043467   -0.2209692318    0.0000128263
     C     2.3720104102   -0.5236562438    0.0000687451
     C     3.3881583535    0.3533591182    0.0000489470
     C     4.8381738063   -0.0290122883    0.0001068253
     H     5.3557953370    0.3784209478    0.8795931324
     H     5.3558356080    0.3783081859   -0.8794082522
     H     4.9680950300   -1.1166926866    0.0001783921
     H     3.1801582824    1.4232805666   -0.0000125882
     H     2.6129717002   -1.5877278779    0.0001343185
     H     0.3771292205   -2.2996636428    0.0001282004
     H    -2.0442573410   -1.9060218523    0.0000418567
     O    -3.1788481923    0.5926151432   -0.0001334758
     C    -4.1390338472   -0.4622165104   -0.0001110897
     H    -4.0387570984   -1.0886670887    0.8940745666
     H    -4.0387007587   -1.0887544753   -0.8942290602
     H    -5.1159878657    0.0228805135   -0.0001650931
     H    -1.3423613395    2.3389466829   -0.0002045412
     H     1.0906604198    1.9416219857   -0.0001213558
