17
-3.9762170455544924e+02 frame 167   xyz file generated by TeraChem
     C     2.3414071980    1.0228479818    0.4271328386
     C     3.4940317931    0.2429716944    0.3348210343
     C     3.4018098313   -1.1047074875   -0.0264292591
     C     2.1580207739   -1.6562480091   -0.3452036889
     C     1.0121919595   -0.8615035940   -0.3099139537
     C     1.0928104415    0.4757179774    0.1074835965
     C    -0.1397547700    1.3329542336    0.1786530667
     O    -0.3253632321    2.1408509870    1.1145304804
     C    -0.9726342483    1.2490792355   -0.9968309926
     H    -0.5940788696    0.7588025174   -1.8859964539
     H    -1.8295702496    1.9000775718   -1.1254874344
    Br    -2.8251155816   -1.0624724872   -1.3752169278
     H     0.0418114585   -1.2824503456   -0.5593716862
     H     2.0805674284   -2.7047744241   -0.6206491960
     H     4.2956503530   -1.7211716262   -0.0619749025
     H     4.4636648403    0.6830981607    0.5493084853
     H     2.4029147737    2.0722293141    0.7003476932
