14
-5.3612068487671820e+02 frame 8   xyz file generated by TeraChem
     C    -1.3837306870   -1.2173012770   -0.0000951018
     C     0.0059047970   -1.2213810964   -0.0000987097
     C     0.7226774718    0.0000097419   -0.0000068187
     C     0.0059688009    1.2214392225    0.0000841405
     C    -1.3836644643    1.2172437507    0.0000787938
     C    -2.0624170151   -0.0000130386   -0.0000086041
     F    -3.4263931462    0.0000182675   -0.0000095660
     H    -1.9456602341    2.1462380888    0.0001408588
     H     0.5587794474    2.1515088570    0.0001512986
     N     2.1163464278   -0.0000284705   -0.0000045697
     O     2.7534507332   -1.1319891568   -0.0001507490
     O     2.7533596318    1.1319916237    0.0001443079
     H     0.5587155474   -2.1514515173   -0.0001639696
     H    -1.9457180106   -2.1463023955   -0.0001574109
