23
-5.8749453021412000e+02 frame 19   xyz file generated by TeraChem
     C    -1.1008809750   -0.5806552387   -0.8537785300
     O    -2.0570792361   -0.6900498663   -1.5894949490
     O    -0.8073698018   -1.3726595347    0.1783640832
     C    -1.7503528264   -2.4437867065    0.4830999914
     C    -2.9169299499   -1.9125608198    1.2972779596
     H    -3.5826032476   -2.7416719635    1.5596851149
     H    -3.4890828127   -1.1777211607    0.7238779455
     H    -2.5636464439   -1.4452995230    2.2216470818
     H    -2.0758349880   -2.8916679186   -0.4576911106
     H    -1.1531834985   -3.1630295495    1.0441187620
     C    -0.0530317027    0.5204419278   -1.0001162555
     C     1.3493543019   -0.0408543730   -0.8330512746
     O     1.8445838182   -0.6533540116   -1.7600321073
     O     1.8902687686    0.1484712525    0.3602139390
     C     3.1556600168   -0.5356655741    0.6158341073
     C     2.9069658961   -1.9818591298    1.0049915549
     H     3.8609279082   -2.4573524676    1.2566556470
     H     2.4518538038   -2.5359653724    0.1793354350
     H     2.2492997160   -2.0410831081    1.8777290067
     H     3.6007096581    0.0364931065    1.4303359933
     H     3.7807152542   -0.4506146591   -0.2747858708
     H    -0.1504009127    0.9806912432   -1.9792696151
    Br    -0.5471634464    1.9900323470    0.3167056914
