12
-7.0265467965830976e+02 frame 5   xyz file generated by TeraChem
     C     2.0920206705   -1.2159319143    0.0000035078
     C     2.7721258142   -0.0000098532    0.0000230500
     C     2.0919786760    1.2158893463    0.0000281709
     C     0.6957149312    1.2153514370    0.0000284924
     C     0.0134462145   -0.0000481073    0.0000239468
     C     0.6957586246   -1.2154235953    0.0000037477
     H     0.1603813502   -2.1577826142    0.0000002493
     I    -2.1331891439   -0.0001204815    0.0001443675
     H     0.1603138225    2.1576972659    0.0000444000
     H     2.6369260566    2.1534255131    0.0000422742
    Cl     4.5336574473    0.0000179907    0.0000520470
     H     2.6369925364   -2.1534538873   -0.0000012535
