12
-2.4282033918476836e+02 frame 6   xyz file generated by TeraChem
     C    -2.8425213792    1.2319928840    0.0000102619
     C    -3.5372548631    0.0000135852    0.0000035802
     C    -2.8425278130   -1.2319689599   -0.0000344642
     C    -1.4651337328   -1.2441459589   -0.0000484602
     C    -0.7730532770    0.0000076542   -0.0000151004
     C    -1.4651270464    1.2441646084   -0.0000029832
     H    -0.9120085737    2.1756954459    0.0000134966
     I     1.2870427484   -0.0000030803    0.0001285160
     H    -0.9120190548   -2.1756790267   -0.0000645288
     H    -3.3962537658   -2.1642230678   -0.0000405483
     H    -4.6223919491    0.0000162539    0.0000304159
     H    -3.3962436935    2.1642491619    0.0000364144
