12
-2.4483609756518376e+02 frame 7   xyz file generated by TeraChem
     C    -2.3519970554   -1.2093148616    0.0000026335
     C    -3.0503364309   -0.0000026620    0.0000303390
     C    -2.3520012258    1.2093119558    0.0000062931
     C    -0.9539365437    1.2210445621   -0.0000455621
     C    -0.2883383712    0.0000022227   -0.0000719981
     C    -0.9539323589   -1.2210424063   -0.0000492806
     H    -0.4083533702   -2.1581818727   -0.0000704495
    Br     1.6920483110    0.0000055194   -0.0001435094
     H    -0.4083609259    2.1581860187   -0.0000641082
     H    -2.8897822219    2.1528368277    0.0000276985
     H    -4.1360373113   -0.0000045458    0.0000713686
     H    -2.8897746958   -2.1528416579    0.0000213751
