12
-2.4459483620904706e+02 frame 6   xyz file generated by TeraChem
     C    -2.3352656236   -1.2377883224    0.0000017464
     C    -3.0303663330   -0.0000027107    0.0000303268
     C    -2.3352693187    1.2377849397    0.0000054430
     C    -0.9609660169    1.2505538301   -0.0000461837
     C    -0.2792222255    0.0000021938   -0.0000727019
     C    -0.9609621890   -1.2505510114   -0.0000499704
     H    -0.3994100133   -2.1774407899   -0.0000718422
    Br     1.6108933454    0.0000054743   -0.0001377856
     H    -0.3994171356    2.1774455487   -0.0000654240
     H    -2.8926729220    2.1675994466    0.0000275483
     H    -4.1154776178   -0.0000048760    0.0000724714
     H    -2.8926661501   -2.1676046228    0.0000211718
