12
-6.9163163319925934e+02 frame 6   xyz file generated by TeraChem
     C     1.3139426002    4.5719749389    1.3407238084
     C     0.0873758966    3.8837169512    1.1331848798
     C     0.0623195853    2.5186859094    0.7357494353
     C     1.2402558949    1.8420409436    0.5461524376
     C     2.4679432064    2.5426382660    0.7584825993
     C     2.5039602589    3.9150053332    1.1572781903
     H     3.4607888689    4.4018354307    1.3054753157
    Cl     3.9300667606    1.7188104403    0.5300406642
     H     1.2655474111    0.8017717248    0.2433396661
     H    -0.8890521933    2.0214816808    0.5850314100
     H    -0.8493534859    4.4109701624    1.2816483285
     H     1.3005251964    5.6127285187    1.6436432648
