12
-6.9187220649821063e+02 frame 7   xyz file generated by TeraChem
     C     1.2842531434    4.5543202274    1.3350867257
     C     0.0702030008    3.8936877843    1.1344772878
     C     0.0637887092    2.5521141025    0.7460903075
     C     1.2645305415    1.8648817645    0.5553440018
     C     2.4633955033    2.5447700461    0.7614711139
     C     2.4947241121    3.8830411097    1.1486889350
     H     3.4423229544    4.3879740924    1.3017627124
    Cl     3.9890163134    1.6860558259    0.5172666494
     H     1.2693841879    0.8241273280    0.2500021905
     H    -0.8766955932    2.0326976378    0.5877792155
     H    -0.8669958179    4.4212589562    1.2832914570
     H     1.2963929452    5.5967314252    1.6394894035
