20
-3.4926933397238543e+02 frame 14   xyz file generated by TeraChem
     C     0.1132728438    1.2186782700   -0.2373611781
     C     1.5526523240    1.2691844215    0.2944313449
     C     2.3436607611    0.0297451576   -0.1505134993
     C     1.6194867602   -1.2708435392    0.2283984610
     C     0.1775040553   -1.2898498029   -0.2991388979
     C    -0.6293444301   -0.0734284287    0.1801036178
     C    -2.0863867275   -0.1094687057   -0.2633773909
     O    -2.9258212794    0.7857400080    0.2069293714
     H    -2.1797830972   -0.4131293622   -1.3461989776
     H    -0.6211980267   -0.0830029917    1.2873867602
     H    -0.3319421896   -2.2146854102    0.0067211914
     H     0.1946943980   -1.2951047708   -1.4008358396
     H     2.1829406342   -2.1372505870   -0.1444431799
     H     1.5978687592   -1.3597852402    1.3249153899
     H     2.4664639356    0.0609214039   -1.2440169063
     H     3.3544656839    0.0432091526    0.2783537830
     H     1.5300222929    1.3081734126    1.3934257823
     H     2.0644089740    2.1817974843   -0.0428410483
     H     0.1320619633    1.2640607677   -1.3389317048
     H    -0.4680511350    2.0850873604    0.1034914209
