26
-4.6554956550216889e+02 frame 9   xyz file generated by TeraChem
     C     0.4674201012   -1.3183338303    0.0004976971
     C     1.4005880339   -0.2368124527    0.0002763448
     C     0.8844720660    1.0951068136    0.0000043540
     C    -0.4674133546    1.3184103198   -0.0000442487
     C    -1.4005804181    0.2368881996    0.0001766142
     C    -0.8844654793   -1.0950312644    0.0004502752
     H    -1.5624963408   -1.9400816329    0.0006220640
     C    -2.7979051393    0.5437167165    0.0001169176
     C    -3.8170369347   -0.3676635149    0.0003120418
     C    -5.2552902868   -0.0022760900    0.0002612863
     H    -5.7523767410   -0.4411926117   -0.8763427120
     H    -5.4109085235    1.0795258157   -0.0000027166
     H    -5.7523156961   -0.4407464306    0.8771248243
     H    -3.5923410393   -1.4319160131    0.0005247589
     H    -3.0572624427    1.6004421071   -0.0001005050
     H    -0.8501482062    2.3340811621   -0.0002562012
     H     1.5625024598    1.9401574588   -0.0001681420
     C     2.7979127230   -0.5436424655    0.0003292642
     C     3.8170583066    0.3677225310    0.0001467768
     C     5.2553056258    0.0023109266    0.0001739367
     H     5.7524374210    0.4412852022    0.8767218985
     H     5.7523004907    0.4407065813   -0.8767456641
     H     5.4109055638   -1.0794935792    0.0005048331
     H     3.5923798047    1.4319785988   -0.0000450518
     H     3.0572614451   -1.6003698995    0.0005319426
     H     0.8501549609   -2.3340046484    0.0007080116
