16
-2.7183454482437605e+02 frame 16   xyz file generated by TeraChem
     C    -0.9990141499   -0.0316731140    0.3116140127
     C    -2.2631988522    0.7289752241   -0.1044358674
     H    -2.2324741926    1.7705801766    0.2388557562
     H    -3.1681112294    0.2629900950    0.3070456398
     H    -2.3655002366    0.7427608745   -1.1981498670
     C    -1.0764661704   -1.5007653565   -0.1223498914
     H    -1.2319850993   -1.5723707944   -1.2080932223
     H    -0.1339915147   -2.0071928131    0.1144541047
     H    -1.9022960843   -2.0306106111    0.3691875570
     C     0.2834711940    0.6341222503   -0.2191966390
     C     1.5604003628    0.0822625336    0.4022384113
     O     2.7320501062    0.4451917930   -0.0589271364
     H     1.4439767057   -0.0582252652    1.5138929284
     H     0.1872275070    1.7364367276   -0.0691156319
     H     0.3275887726    0.5090861963   -1.3168696054
     H    -0.9422664191   -0.0101008168    1.4122988508
