16
-2.7179917528879912e+02 frame 5   xyz file generated by TeraChem
     C    -1.0036865800   -0.0099567875    0.3342395325
     C    -2.2805126497    0.7012781752   -0.1262181050
     H    -2.3030467406    1.7405345788    0.2211185356
     H    -3.1703036817    0.1913822904    0.2604708969
     H    -2.3453338219    0.7085526104   -1.2214784690
     C    -0.9903735851   -1.4758359725   -0.1168402094
     H    -0.9988151430   -1.5433683831   -1.2121601361
     H    -0.0994337873   -2.0040274921    0.2433681156
     H    -1.8713839114   -2.0068089715    0.2608219911
     C     0.2427166459    0.7414785743   -0.1820637685
     C     1.5190879138    0.1880631438    0.3884868091
     O     2.4793654715   -0.1746642191   -0.2662149965
     H     1.5413226631    0.1231299659    1.4982018718
     H     0.1790726261    1.7938478086    0.1339304595
     H     0.2956693306    0.7146075027   -1.2764509151
     H    -0.9749340503    0.0132542757    1.4332377876
