17
-3.8499939738784070e+02 frame 9   xyz file generated by TeraChem
     C     0.0150720606    0.8650777151   -0.0000272160
     C     0.3517307871   -0.5461645920   -0.0000489337
     C    -0.7513737079   -1.4682738989   -0.0000310063
     C    -2.0688314414   -1.0537029115    0.0000048588
     C    -2.3845348985    0.3214625870    0.0000255364
     C    -1.3215867900    1.2458777580    0.0000085755
     H    -1.5493170227    2.3122406748    0.0000243027
     H    -3.4162634440    0.6616194281    0.0000543591
     H    -2.8665310714   -1.7952255403    0.0000168102
     H    -0.5221657591   -2.5339016033   -0.0000475269
     C     1.6744933048   -1.0749204248   -0.0000875010
     O     2.7917735853   -0.4558623049   -0.0001105139
     H     1.6930008035   -2.1911683492   -0.0000992167
     C     1.0860416763    1.9283943129   -0.0000414613
     H     1.7455920747    1.8493719929    0.8725173601
     H     1.7455708449    1.8493699947   -0.8726153571
     H     0.6324324978    2.9270211614   -0.0000352699
