14
-8.0528527050078651e+02 frame 8   xyz file generated by TeraChem
     C     0.6749604993    1.3914117907    0.0000361951
     C    -0.7014836184    1.2750467761    0.0000311946
     C    -1.2872330603   -0.0071411678    0.0000644186
     C    -0.4871212138   -1.1629827384    0.0001022813
     C     0.8904672109   -1.0417210038    0.0001073641
     C     1.5341032876    0.2433741194    0.0000738167
     C     2.9505894445    0.3708246680    0.0000781347
     O     3.7945978449   -0.5836032196    0.0001169697
     H     3.3185955370    1.4222186405    0.0000610354
     H     1.5157248714   -1.9298448831    0.0001376140
     H    -0.9551527846   -2.1439546899    0.0001281222
    Cl    -3.0592338044   -0.1613294999    0.0000575910
     H    -1.3319538262    2.1597149275    0.0000014787
     H     1.1256181120    2.3828594803    0.0000102838
