20
-4.9934986373027027e+02 frame 8   xyz file generated by TeraChem
     C    -1.8185573278    1.5136991813   -0.0000015851
     C    -3.1078932565    1.0125114486   -0.0000051195
     C    -3.3443618160   -0.3784209968   -0.0000052579
     C    -2.2567452984   -1.2528209730   -0.0000016785
     C    -0.9344683935   -0.7803343630    0.0000019756
     C     0.2039008956   -1.6627340502    0.0000057411
     C     1.4805293225   -1.1794813371    0.0000093646
     C     1.7605989165    0.2317027030    0.0000095981
     C     0.6422583696    1.1146009152    0.0000057261
     C    -0.6812880206    0.6447439758    0.0000020681
     H     0.8174720947    2.1904240259    0.0000057431
     C     3.1056625262    0.7001629669    0.0000135414
     H     3.2052363959    1.8100810303    0.0000128015
     O     4.1551135574   -0.0112537100    0.0000174077
     H     2.3291159384   -1.8592572630    0.0000121869
     H     0.0211909020   -2.7362719816    0.0000055861
     H    -2.4235254132   -2.3290683479   -0.0000016933
     H    -4.3604986748   -0.7627756257   -0.0000080911
     H    -3.9508316056    1.7006041901   -0.0000078317
     H    -1.6491424125    2.5888279110   -0.0000014833
