20
-4.9927023149435934e+02 frame 6   xyz file generated by TeraChem
     C    -1.7938968815    1.5138289100   -0.0000010370
     C    -3.0811959625    1.0246196646   -0.0000087520
     C    -3.3146852922   -0.3730614180   -0.0000090875
     C    -2.2586172088   -1.2597362822   -0.0000021690
     C    -0.9208095180   -0.7896900945    0.0000048202
     C     0.1937697389   -1.6784363367    0.0000096254
     C     1.4777692561   -1.1981230739    0.0000132447
     C     1.7141885469    0.2064060795    0.0000154694
     C     0.6516326978    1.0928037860    0.0000124324
     C    -0.6852104676    0.6254393451    0.0000058229
     H     0.8384946705    2.1646184370    0.0000141074
     C     3.0862353659    0.7360300672    0.0000156197
     H     3.1554790998    1.8427472306    0.0000235930
     O     4.0983160909    0.0486061809   -0.0000172379
     H     2.3308798274   -1.8687143990    0.0000157326
     H     0.0037332184   -2.7484836639    0.0000098841
     H    -2.4369856465   -2.3317674101   -0.0000025165
     H    -4.3352146575   -0.7449056921   -0.0000150286
     H    -3.9246100626    1.7086344478   -0.0000147552
     H    -1.6055061152    2.5841239219   -0.0000007682
