24
-5.7669279801825974e+02 frame 12   xyz file generated by TeraChem
     C    -1.9466043694    1.3325617904    0.3884578256
     C    -2.7127464082    0.2025626870    0.0693572232
     C    -2.0650931999   -0.9968312176   -0.2691289084
     C    -0.6799364513   -1.0595737802   -0.2878354340
     C     0.0997803604    0.0716677804    0.0300790915
     C    -0.5579296133    1.2677131008    0.3692185329
     H     0.0248806062    2.1421529942    0.6397560519
     C     1.5786797743    0.0011491524    0.0056261741
     C     2.2489830285   -1.1744127172    0.3856706340
     C     3.6413742008   -1.2399580351    0.3629662635
     C     4.3910418129   -0.1333573148   -0.0436399050
     C     3.7366807622    1.0405794858   -0.4252633224
     C     2.3444606576    1.1081328479   -0.3993319163
     H     1.8454372467    2.0175496638   -0.7198959148
     H     4.3105137002    1.9035935575   -0.7508774092
     H     5.4758364422   -0.1851731484   -0.0629375079
     H     4.1411055656   -2.1545116081    0.6693753175
     H     1.6769910883   -2.0329450905    0.7242117968
     H    -0.1881229965   -1.9838214318   -0.5737061520
     H    -2.6639459381   -1.8658450958   -0.5231477734
     C    -4.1808644881    0.2897179900    0.0892421618
     O    -4.9383895885   -0.6304636115   -0.1880806191
     H    -4.5828777042    1.2813611325    0.3806766078
     H    -2.4453825884    2.2599934683    0.6587577820
