17
-6.8264875362170005e+02 frame 12   xyz file generated by TeraChem
     C    -1.5413680570    1.0318889871    0.0202415118
     C    -0.1558450913    1.1399597692    0.0153284248
     C     0.6260264581   -0.0206889086   -0.0092257012
     C     0.0325366633   -1.2866126078   -0.0226342910
     C    -1.3548167120   -1.3901932067   -0.0138871549
     C    -2.1452825347   -0.2332542319    0.0043783762
     C    -3.6177674706   -0.3658484628   -0.0020791484
     O    -4.3971132233    0.5738828274    0.0026505129
     H    -3.9899740010   -1.4094720271   -0.0140186784
     H    -1.8301171907   -2.3671573799   -0.0278546362
     H     0.6501379099   -2.1779993507   -0.0482400842
     C     2.1276627072    0.0738981944   -0.0006757009
     F     2.6806704978   -0.8121867718   -0.8625415669
     F     2.5642924551    1.3035446390   -0.3516137899
     F     2.6423843071   -0.2017332578    1.2213804389
     H     0.3182402094    2.1147436161    0.0212655797
     H    -2.1677160274    1.9175812719    0.0311614078
