15
-4.3785648521933223e+02 frame 8   xyz file generated by TeraChem
     C    -0.5353334998    1.3773985273    0.0000096896
     C    -1.3343567921    0.2267218431   -0.0000311341
     C    -0.7449936160   -1.0467259190   -0.0000759933
     C     0.6362632012   -1.1720781841   -0.0000795569
     C     1.4337812460   -0.0115420155   -0.0000376417
     C     0.8505771356    1.2662177005    0.0000070144
     H     1.4797428574    2.1492946731    0.0000395480
     C     2.8610862995   -0.1364843676   -0.0000388925
     N     4.0199626899   -0.2386388102   -0.0000441074
     H     1.1068722070   -2.1491282767   -0.0001136669
     H    -1.3819528816   -1.9246859026   -0.0001073257
     C    -2.8074527904    0.3727015843   -0.0000239599
     O    -3.5914078522   -0.5623311946   -0.0000547106
     H    -3.1710440791    1.4189190264    0.0000109126
     H    -1.0026612255    2.3580919156    0.0000446244
