15
-4.2060549151028385e+02 frame 12   xyz file generated by TeraChem
     C     0.1265925184   -1.3883795877    0.0000596683
     C    -1.2347936902   -1.2327587737    0.0002334688
     C    -1.7788247175    0.0988563906    0.0000918685
     C    -0.9313036984    1.2557689302   -0.0003738558
     C     0.4220666118    1.0728666585   -0.0005249224
     C     0.9674872360   -0.2466087434   -0.0002274722
     C     2.4422948835   -0.4269670051    0.0000621188
     O     3.2137324927    0.5165679024   -0.0001220090
     H     2.7970879080   -1.4715240711    0.0004947700
     H     1.1036545667    1.9157398689   -0.0008538952
     H    -1.3824857962    2.2432215470   -0.0005525581
     O    -3.0812693857    0.1837495793    0.0004133536
     H    -3.4012969345    1.1124665017    0.0002885115
     H    -1.9220205340   -2.0711621523    0.0005205261
     H     0.5701703394   -2.3789191453    0.0001677272
