16
-6.6955598105969602e+02 frame 8   xyz file generated by TeraChem
     C    -0.3700199215    1.2069354130    0.0000077461
     C    -1.7226320107    1.2325705028    0.0000154985
     S    -2.4220485189   -0.3947435463    0.0001061939
     C    -0.8902220003   -1.1015876619    0.0000660003
     C     0.1585021018   -0.1390043799    0.0000327505
     C     1.5107958058   -0.5458952254    0.0000222319
     C     2.5844652343    0.3253186523   -0.0000145303
     C     3.9959101658   -0.1067173052   -0.0000292267
     H     4.5097053676    0.3186851670   -0.8748404268
     H     4.5097319081    0.3187123055    0.8747533508
     H     4.1062997548   -1.1932754082   -0.0000136761
     H     2.3967551482    1.3969220232   -0.0000331237
     H     1.7100415059   -1.6147594383    0.0000435679
     H    -0.7644162850   -2.1773001185    0.0000854197
     H    -2.3847967032    2.0882139596   -0.0000036504
     H     0.2418946473    2.0997576604   -0.0000211257
