18
-4.6014089266513270e+02 frame 9   xyz file generated by TeraChem
     C    -0.7200185764    1.4321897208    0.0003530365
     C    -1.4237380274    0.2139377197   -0.0004955039
     C    -0.7025653539   -0.9905652385   -0.0006432408
     C     0.6856688654   -0.9926728848    0.0000932356
     C     1.3769512688    0.2332812925    0.0010208657
     C     0.6644912629    1.4467115614    0.0011089612
     H     1.2218440904    2.3777343579    0.0017288801
     O     2.7253315155    0.3458298658    0.0019488303
     C     3.5111300149   -0.8501872407    0.0003466867
     H     4.5496920965   -0.5188417526    0.0003694184
     H     3.3137658643   -1.4504791809    0.8950294268
     H     3.3131504149   -1.4485348502   -0.8954977484
     H     1.2230339975   -1.9327900919    0.0000119708
     H    -1.2480953739   -1.9292334554   -0.0013120174
     C    -2.8879385558    0.2189307277   -0.0011677514
     O    -3.5980930691   -0.7801955918   -0.0019550001
     H    -3.3457626684    1.2298924278   -0.0010070081
     H    -1.2716016663    2.3691097131    0.0003721580
