18
-4.5991657465680072e+02 frame 14   xyz file generated by TeraChem
     C    -0.7087992139    1.4629077905    0.0006105815
     C    -1.4085661391    0.2348499637    0.0002781549
     C    -0.7086640886   -1.0092478157    0.0005527253
     C     0.6585145441   -1.0405005077    0.0007911104
     C     1.3668359453    0.2046328533    0.0005940414
     C     0.6633924182    1.4620510065    0.0007475042
     H     1.2498344755    2.3737828145    0.0007697163
     O     2.6648760303    0.3108808536    0.0003839890
     C     3.5357787603   -0.8571070719   -0.0004485519
     H     4.5421040782   -0.4466981392   -0.0028597076
     H     3.3481271186   -1.4414560148    0.9020284888
     H     3.3445828655   -1.4432852181   -0.9009618994
     H     1.1966674842   -1.9796610374    0.0011908485
     H    -1.2856369705   -1.9270467815    0.0006247744
     C    -2.8937063179    0.2357253518   -0.0010566465
     O    -3.5460568055   -0.7936054171   -0.0032797592
     H    -3.3713925968    1.2304450134   -0.0002341363
     H    -1.2606454881    2.3974494562    0.0005739661
