25
-6.5604467158529030e+02 frame 10   xyz file generated by TeraChem
     C    -3.2384125309   -1.2281479723   -0.3786609112
     C    -4.6215665234   -1.0589872880   -0.3237022648
     C    -5.1574950383    0.1705457101    0.0656587823
     C    -4.3062084526    1.2309758667    0.4020334388
     C    -2.9267785354    1.0637176103    0.3493400499
     C    -2.3780687641   -0.1703288315   -0.0437533618
     C    -0.9305305278   -0.3805427592   -0.1240208589
     N    -0.0800544281    0.5432361294    0.1430635943
     C     1.2972678656    0.2595525824    0.0795369274
     C     2.1491352288    1.2906184964   -0.3514098470
     C     3.5223840168    1.0870698111   -0.4525026251
     C     4.0402257332   -0.1504671067   -0.0865426127
     C     3.2342612774   -1.1818207729    0.3804533930
     C     1.8582751592   -0.9729652629    0.4614777439
     H     1.2199277754   -1.7616804192    0.8467290604
     H     3.6807250966   -2.1244704451    0.6793591444
     F     5.3784060821   -0.3499609701   -0.1819371555
     H     4.1875873374    1.8697669536   -0.8015670841
     H     1.7143295738    2.2470747534   -0.6237675911
     H    -0.6152887030   -1.3815880041   -0.4469874030
     H    -2.2572537607    1.8781497199    0.6058609960
     H    -4.7240535120    2.1869706076    0.7043937857
     H    -6.2345392092    0.3052830857    0.1076429360
     H    -5.2791702787   -1.8829008412   -0.5849517080
     H    -2.8158498823   -2.1825994536   -0.6823930290
