29
-6.7141935611370491e+02 frame 27   xyz file generated by TeraChem
     C    -3.1450634606   -1.4028161660    0.1029123516
     C    -4.5315670696   -1.4089604360    0.0727071105
     C    -5.2578860753   -0.2054353308    0.0081936508
     C    -4.5451843034    1.0054103563   -0.0268010598
     C    -3.1579442145    1.0247153345    0.0007226137
     C    -2.3995978489   -0.1854987291    0.0690581961
     C    -0.9752061067   -0.2032840132    0.1020456944
     N    -0.2345679618    0.9167379379    0.0871659801
     C     1.1340062975    0.8614331912    0.0721344303
     C     1.8435464895    2.0912835653    0.1782308509
     C     3.2315406804    2.1289955369    0.1803468006
     C     3.9926740740    0.9581477929    0.0725218552
     C     3.3133688900   -0.2660403942   -0.0455488938
     O     4.1242074181   -1.3733115837   -0.1622588582
     C     3.4987293730   -2.6427732905   -0.2958163295
     H     4.3079104945   -3.3720744984   -0.3687684676
     H     2.8735380204   -2.8762307065    0.5750116484
     H     2.8801843229   -2.6935319201   -1.2008823734
     C     1.9218058572   -0.3278712299   -0.0496273966
     H     1.4279390411   -1.2833131947   -0.1637167292
     H     5.0778137583    0.9720867629    0.0714670137
     H     3.7411008582    3.0865764643    0.2674848908
     H     1.2610442235    3.0051410852    0.2654904713
     H    -0.5178918122   -1.1975185968    0.1660123876
     H    -2.6192304989    1.9669687099   -0.0269757050
     H    -5.0890332000    1.9473823772   -0.0771081697
     H    -6.3439153762   -0.2124612003   -0.0152041936
     H    -5.0620015656   -2.3590583979    0.0995464367
     H    -2.6009820049   -2.3449542262    0.1532294939
