37
-8.4303969524937520e+02 frame 16   xyz file generated by TeraChem
     C    -3.6957421450    1.0105396046   -0.5991758376
     C    -5.0628608045    0.7914758291   -0.4802971752
     C    -5.5286397523   -0.3754669756    0.1350636332
     C    -4.6260477472   -1.3272046582    0.6331917250
     C    -3.2604538696   -1.1175059307    0.5182533553
     C    -2.7800350490    0.0578859495   -0.1033622829
     C    -1.3745091160    0.3269772356   -0.2491205833
     N    -0.4814289423   -0.5493313994    0.1305893603
     N     0.8198870117   -0.2019289718    0.0501882571
     C     1.2505147267    1.1628689004    0.0540160900
     C     0.7952939189    2.0212029436    1.0643374951
     C     1.2215917899    3.3451057041    1.0625195297
     C     2.0827293515    3.8057062869    0.0609043550
     C     2.5257011591    2.9395542898   -0.9434961367
     C     2.1165499886    1.6091240209   -0.9518535025
     H     2.4383440719    0.9272311255   -1.7309634116
     H     3.1852960941    3.3012170778   -1.7254621924
     H     2.4092367132    4.8408505856    0.0640452940
     H     0.8882596429    4.0155400079    1.8478281195
     H     0.1420107056    1.6443980574    1.8437747808
     C     1.7454565090   -1.2501595170    0.0038965103
     C     1.3330657408   -2.5211360069   -0.4479939303
     C     2.2569895418   -3.5535067743   -0.4964447137
     C     3.5841899684   -3.3380107601   -0.0982729159
     C     3.9855816153   -2.0768804105    0.3582595309
     C     3.0770008691   -1.0296273772    0.4156720884
     H     3.3763331294   -0.0629449444    0.8007972691
     H     5.0076116617   -1.9141606542    0.6838565299
     H     4.3008237016   -4.1519763624   -0.1406440171
     H     1.9490745684   -4.5298883215   -0.8558862588
     H     0.3100152194   -2.6678854714   -0.7696953601
     H    -1.0855789708    1.2748347369   -0.7045051946
     H    -2.5517126594   -1.8441080700    0.8997247554
     H    -4.9979652909   -2.2286520155    1.1097672950
     H    -6.5968847686   -0.5463797232    0.2287456821
     H    -5.7660300629    1.5241957033   -0.8629012389
     H    -3.3203339203    1.9129035854   -1.0730236044
