28
-5.9613421721250552e+02 frame 27   xyz file generated by TeraChem
     C    -3.1658673282   -1.2713209604   -0.2257461752
     C    -4.5481285743   -1.0873450759   -0.2405237502
     C    -5.0837434396    0.1843287502   -0.0247308502
     C    -4.2321745337    1.2719332926    0.2081606577
     C    -2.8536656371    1.0895802103    0.2270200066
     C    -2.3049089845   -0.1870253190    0.0092700287
     C    -0.8574180690   -0.4126244818   -0.0137427187
     N    -0.0063353347    0.5243017892    0.2020009231
     C     1.3756758988    0.2539704041    0.1452635052
     C     1.9584852115   -0.9973008960    0.4109499259
     C     3.3384406574   -1.1646208901    0.3163424654
     C     4.1822858121   -0.1035995294   -0.0402079610
     C     3.5956640176    1.1468283593   -0.2854518914
     C     2.2200275757    1.3279261481   -0.1827187119
     H     1.7716936216    2.2982963229   -0.3755216865
     H     4.2269994891    1.9885945884   -0.5601224473
     C     5.6770000848   -0.2895205315   -0.1308647030
     H     5.9422686621   -1.3497622647   -0.1857703407
     H     6.1839572189    0.1355991788    0.7451888235
     H     6.0863752489    0.2136147139   -1.0141194991
     H     3.7711467851   -2.1396000661    0.5271414239
     H     1.3376233902   -1.8353013844    0.7127298755
     H    -0.5487300790   -1.4346261500   -0.2688280174
     H    -2.1834803234    1.9252937885    0.3996062441
     H    -4.6491597485    2.2616456994    0.3713088692
     H    -6.1598801412    0.3314201967   -0.0420099578
     H    -5.2052516959   -1.9322445594   -0.4250213949
     H    -2.7440281845   -2.2578354338   -0.4014804435
