29
-6.7114104678321678e+02 frame 13   xyz file generated by TeraChem
     C    -3.2023260320   -1.1045901328   -0.8564289416
     C    -4.5542328401   -1.2165469714   -0.5503300964
     C    -5.1372876884   -0.3208162037    0.3516141285
     C    -4.3711000324    0.6898958000    0.9507336512
     C    -3.0217828514    0.8067575381    0.6514260287
     C    -2.4251675515   -0.0940402087   -0.2564604224
     C    -1.0186159672   -0.0272453089   -0.5756312520
     N    -0.2212609979    0.8641474748   -0.0856728579
     C     1.1311234733    0.8184729348   -0.1151399782
     C     1.8185916693    2.0705654752   -0.3133035196
     C     3.2056646510    2.1077213266   -0.3299209948
     C     3.9251684458    0.9363759770   -0.1249106522
     C     3.2425601096   -0.3101028889    0.0982730662
     O     4.0555376534   -1.3491743284    0.2692660866
     C     3.4817251034   -2.6499540463    0.5022519630
     H     4.3299351938   -3.3226496429    0.6150950287
     H     2.8800210799   -2.6362006726    1.4154229830
     H     2.8683850055   -2.9469455577   -0.3530818160
     C     1.8544593365   -0.3668843642    0.1130682051
     H     1.3199482545   -1.2890428267    0.2981134263
     H     5.0097327919    0.9265795210   -0.1231049123
     H     3.7275568058    3.0438480663   -0.4923591838
     H     1.2210618035    2.9639881704   -0.4545236037
     H    -0.6363466299   -0.7594244825   -1.2962428324
     H    -2.4159043957    1.5866523179    1.1008761680
     H    -4.8356265212    1.3823355336    1.6455676130
     H    -6.1938321339   -0.4056009810    0.5879641705
     H    -5.1539100671   -1.9946833634   -1.0114131826
     H    -2.7351315685   -1.7945773558   -1.5532462729
