29
-6.7134208147283709e+02 frame 84   xyz file generated by TeraChem
     C    -3.0446912494   -1.2140071540   -0.5183865775
     C    -4.4348399086   -1.3098188484   -0.5149018749
     C    -5.1996546596   -0.2805961472    0.0377199694
     C    -4.5689164238    0.8418705522    0.5891701468
     C    -3.1807601608    0.9370246818    0.5903434526
     C    -2.4034504412   -0.0925543142    0.0334877000
     C    -0.9432726939   -0.0401087632   -0.0254053323
     N    -0.2238423461    0.9335770451    0.4025517095
     C     1.1701798011    0.8695722383    0.1762617604
     C     1.8246757826    2.0801362601   -0.0880986562
     C     3.1955650485    2.0838133194   -0.3517808922
     C     3.9284360935    0.9014911127   -0.3242811725
     C     3.2792798861   -0.3096407066   -0.0358325094
     O     4.0754051853   -1.4184287854   -0.0289632864
     C     3.4573106235   -2.6784579206    0.2189548903
     H     4.2563067210   -3.4193162655    0.1664937094
     H     2.9940692870   -2.7102443093    1.2116834417
     H     2.7003020744   -2.9046366496   -0.5420123378
     C     1.9045316696   -0.3314174350    0.2164887135
     H     1.3986422725   -1.2541219897    0.4699333158
     H     4.9973633012    0.8922459583   -0.5119991226
     H     3.7002579412    3.0202153139   -0.5720886938
     H     1.2458974018    2.9977919800   -0.1049840932
     H    -0.4842868254   -0.8970688898   -0.5369734715
     H    -2.6817742342    1.8055879830    1.0076376046
     H    -5.1664626844    1.6430861180    1.0135968955
     H    -6.2836276174   -0.3495150232    0.0360657386
     H    -4.9187175230   -2.1799855955   -0.9492440099
     H    -2.4449802214   -2.0076329657   -0.9575350177
