25
-6.5583904391238389e+02 frame 25   xyz file generated by TeraChem
     C    -2.6888242269   -0.6613679717   -0.6695519993
     C    -4.0059081614   -0.9737113185   -0.9767831713
     C    -5.0542663217   -0.3127758883   -0.3216339610
     C    -4.7874084610    0.6624428355    0.6426401529
     C    -3.4692758577    0.9820000927    0.9569097655
     C    -2.4162507344    0.3209229104    0.3016561432
     C    -1.0552249951    0.6810181972    0.6559324870
     N    -0.0187265767    0.1633124761    0.1436416344
     C     1.2953204325    0.0710317306    0.0512464167
     C     2.0006797481    0.8637400439   -0.9135691891
     C     3.3627369076    0.7280750037   -1.0387889344
     C     4.0252339503   -0.2049835698   -0.2239520189
     C     3.3644879237   -1.0084900312    0.7201018206
     C     2.0024246187   -0.8829321026    0.8554391091
     H     1.4447027506   -1.4819061100    1.5657863999
     H     3.9352382139   -1.7080894657    1.3201163344
     F     5.3440188872   -0.3367377798   -0.3553974900
     H     3.9322165997    1.3195984570   -1.7466080390
     H     1.4416573389    1.5658525752   -1.5209758189
     H    -0.9122498536    1.4545130965    1.4194753920
     H    -3.2467431291    1.7379128959    1.7042742168
     H    -5.6033714993    1.1705456843    1.1462700519
     H    -6.0825607375   -0.5615951833   -0.5663822398
     H    -4.2236111798   -1.7297996601   -1.7243406165
     H    -1.8669517370   -1.1651220182   -1.1689098462
