25
-6.5604430988397371e+02 frame 12   xyz file generated by TeraChem
     C    -2.9197963251   -1.0870656727   -0.2491964250
     C    -4.2968334875   -1.2803278375   -0.2503126965
     C    -5.1597456286   -0.2028853083   -0.0119061128
     C    -4.6371645873    1.0695389081    0.2298618558
     C    -3.2563588489    1.2645170095    0.2350433063
     C    -2.3842070048    0.1905509362   -0.0058627389
     C    -0.9391903802    0.4262787377    0.0377767027
     N    -0.0801916990   -0.5024966862   -0.1815558739
     C     1.2993734448   -0.2294139504   -0.1026293791
     C     1.8802716229    1.0313191272   -0.3369570347
     C     3.2575238489    1.2091933896   -0.2286563827
     C     4.0492061550    0.1189648309    0.1151536088
     C     3.5143745312   -1.1449013110    0.3341304116
     C     2.1376084516   -1.3128376381    0.2114669734
     H     1.6866426093   -2.2863672817    0.3757133481
     H     4.1665780430   -1.9718952716    0.5943427842
     F     5.3888999518    0.2926696763    0.2368998925
     H     3.7181883172    2.1748356616   -0.4091059028
     H     1.2604333103    1.8733077567   -0.6269066326
     H    -0.6406477233    1.4463436414    0.3120097453
     H    -2.8447066868    2.2514872524    0.4309318058
     H    -5.3033209574    1.9063485575    0.4185484318
     H    -6.2348152278   -0.3584569685   -0.0114360534
     H    -4.7038330533   -2.2704699412   -0.4345228775
     H    -2.2409447762   -1.9147827180   -0.4262341566
