25
-5.5660508585306343e+02 frame 20   xyz file generated by TeraChem
     C     2.9606581458    0.9653766685   -0.9679331444
     C     4.2679779206    0.6160236249   -0.6406467938
     C     4.5030344477   -0.3597480690    0.3312714771
     C     3.4336332631   -0.9915096419    0.9811495383
     C     2.1269613513   -0.6493968016    0.6611235864
     C     1.8869139052    0.3335288193   -0.3177513204
     C     0.5380182108    0.7249984533   -0.6870275702
     N    -0.5161023551    0.2394212082   -0.1841574372
     C    -1.8238367886    0.1309088936   -0.0617890797
     C    -2.5165691009    0.9216677697    0.9136269129
     C    -3.8779446871    0.7681710962    1.0556940155
     C    -4.5747556139   -0.1672250283    0.2641694802
     C    -3.8972381324   -0.9589281119   -0.6850818747
     C    -2.5361892555   -0.8303818301   -0.8525667107
     H    -1.9828439304   -1.4247203464   -1.5705774819
     H    -4.4508884172   -1.6721722034   -1.2862605292
     H    -5.6465486117   -0.2810738209    0.3890160846
     H    -4.4170999719    1.3696004545    1.7797345183
     H    -1.9489687409    1.6287844645    1.5076139967
     H     0.4216596779    1.4974495066   -1.4564978996
     H     1.2891899795   -1.1303703066    1.1565569134
     H     3.6267219590   -1.7483034247    1.7347115495
     H     5.5229252736   -0.6319137533    0.5861031843
     H     5.1000656951    1.1014095925   -1.1402770383
     H     2.7625417760    1.7218553863   -1.7215096773
