25
-5.5681041301535470e+02 frame 47   xyz file generated by TeraChem
     C     2.7327168036    1.2308247098   -0.3668399711
     C     4.1009692265    1.0687235530   -0.1493645330
     C     4.6036606919   -0.1794414876    0.2241950463
     C     3.7334408808   -1.2657977443    0.3814954408
     C     2.3678507446   -1.1032899364    0.1769515655
     C     1.8528396094    0.1489952891   -0.2052415944
     C     0.4127631092    0.3701043383   -0.3722529380
     N    -0.4524419060   -0.5267293644   -0.0642920520
     C    -1.8247043719   -0.2186969258   -0.0496799832
     C    -2.3284002639    1.0424237285    0.3204719052
     C    -3.7045094798    1.2593165255    0.3765124015
     C    -4.5977238992    0.2295369841    0.0686096756
     C    -4.1030324396   -1.0299385176   -0.2841396540
     C    -2.7293437516   -1.2565924342   -0.3306715105
     H    -2.3333963616   -2.2348732701   -0.5867715040
     H    -4.7896404080   -1.8409295982   -0.5103368074
     H    -5.6687760841    0.4011276759    0.1233932829
     H    -4.0803769679    2.2330458012    0.6788889172
     H    -1.6428668491    1.8353520942    0.6038022214
     H     0.1193719339    1.3687454749   -0.7218997814
     H     1.6824319104   -1.9334528268    0.3122704624
     H     4.1243579551   -2.2354935407    0.6766092357
     H     5.6681255478   -0.3073591296    0.3992446471
     H     4.7719456608    1.9150880669   -0.2630536229
     H     2.3360547089    2.2027631343   -0.6492061495
