23
-4.6334144414576861e+02 frame 7   xyz file generated by TeraChem
     C    -0.9113198061   -0.4727289035    0.0008575876
     C    -2.1888477620    0.1139602550    0.0142172811
     C    -2.2936374435    1.4902962685    0.0398636931
     C    -1.1402139364    2.3237270225    0.0526629054
     C     0.1138298271    1.7681689149    0.0398975265
     C     0.2880428292    0.3555519163    0.0138716012
     C     1.5574425496   -0.2864733011    0.0009460991
     C     2.7745281303    0.3535634765    0.0150487227
     C     4.0735458097   -0.3570134619    0.0023775062
     H     3.9572252935   -1.4431003411   -0.0175680449
     H     4.6641620343   -0.0355364513   -0.8676938820
     H     4.6635221173   -0.0672746383    0.8838733977
     H     2.8185486271    1.4395905882    0.0376084058
     H     1.5578190753   -1.3713971806   -0.0207604594
     H     0.9852774274    2.4111748598    0.0494632777
     H    -1.2616841052    3.4011264262    0.0724349732
     H    -3.2778454456    1.9476767541    0.0502937461
     H    -3.0785655016   -0.5015451526    0.0045174597
     O    -0.6962994964   -1.7769683905   -0.0229910485
     C    -1.8064357879   -2.7006237453   -0.0345765278
     H    -2.4141491758   -2.5392537926   -0.9281729173
     H    -2.4061627290   -2.5704589414    0.8693556622
     H    -1.3502502311   -3.6882268818   -0.0538190653
