16
-4.0069084239303697e+02 frame 7   xyz file generated by TeraChem
     C     0.9560322794   -1.3182909567    0.0000064797
     C     2.3077301025   -1.0551869399   -0.0000013846
     C     2.7563929624    0.2829179313    0.0000028182
     C     1.8479623709    1.3624921368    0.0000149199
     C     0.4942949560    1.1165003741    0.0000226749
     C     0.0211236120   -0.2372801162    0.0000181214
     C    -1.3590013265   -0.5447964726    0.0000254021
     N    -2.2462510278    0.4423490949    0.0000355565
     O    -3.4862769015   -0.0513991967    0.0000285302
     H    -4.0785796741    0.7309907858    0.0000103750
     H    -1.6960852099   -1.5808778562    0.0000216219
     H    -0.2239002058    1.9273871241    0.0000321373
     H     2.2212892776    2.3804301989    0.0000180609
     H     3.8229312168    0.4854039258   -0.0000033576
     H     3.0273929258   -1.8661542543   -0.0000109536
     H     0.5826402421   -2.3370579793    0.0000033977
