20
-4.2425917355215529e+02 frame 8   xyz file generated by TeraChem
     C    -0.0389996260    1.1978704952   -0.0037639807
     C    -1.4321326806    1.2122508205   -0.0094315902
     C    -2.1673658147    0.0190942232   -0.0085854837
     C    -1.4634656517   -1.1967238057   -0.0087824551
     C    -0.0750631736   -1.2170451621   -0.0027014308
     C     0.6594249580   -0.0191936178    0.0003479597
     C     2.1482308934   -0.0878396194    0.0040843202
     O     2.7265907048   -1.1719567684    0.0075244471
     C     2.9361687894    1.2057836597    0.0042773820
     H     4.0031117319    0.9760706787    0.0090611711
     H     2.6872699653    1.8099476351    0.8840628432
     H     2.6943178675    1.8055193060   -0.8805113859
     H     0.4634160030   -2.1589683734   -0.0039029539
     H    -2.0167874703   -2.1324301059   -0.0153571817
     C    -3.6742108311    0.0347326258    0.0148591745
     H    -4.0468234171   -0.0877188714    1.0404631735
     H    -4.0700344651    0.9798157362   -0.3689064814
     H    -4.0887529164   -0.7860560128   -0.5796273824
     H    -1.9587572131    2.1628994678   -0.0164449229
     H     0.4995411465    2.1396003887   -0.0060813225
