20
-4.2432354530157585e+02 frame 8   xyz file generated by TeraChem
     C    -0.0377697612    1.1991591857   -0.0065042532
     C    -1.4243220638    1.2063383593   -0.0114099368
     C    -2.1846420917    0.0165848034   -0.0113216469
     C    -1.4594623962   -1.1998466370   -0.0104886392
     C    -0.0780561406   -1.2306415202   -0.0051642234
     C     0.7092599270   -0.0282648880    0.0001398398
     C     2.1379845612   -0.0946546830    0.0051489263
     O     2.7857773636   -1.2036587744    0.0084160855
     C     2.9288861035    1.2138078822    0.0062519028
     H     3.9977791286    0.9784190386    0.0117810137
     H     2.7110447787    1.8413814303    0.8838493972
     H     2.7194316658    1.8379546977   -0.8758705959
     H     0.4494809716   -2.1805433265   -0.0104294714
     H    -2.0123917612   -2.1400139825   -0.0173901901
     C    -3.6922065936    0.0358745671    0.0241063398
     H    -4.0972277099   -0.0787777051    1.0429031828
     H    -4.0897446602    0.9802171042   -0.3676763955
     H    -4.1227048024   -0.7785912394   -0.5734524757
     H    -1.9478366297    2.1628883673   -0.0186744619
     H     0.4923989103    2.1480200204   -0.0136304978
