17
-4.8416901876642589e+02 frame 9   xyz file generated by TeraChem
     C    -0.0210765253    1.2009153586   -0.0000516806
     C     1.3714907407    1.2257302270    0.0000925541
     C     2.0552322705    0.0151173729    0.0001021818
     C     1.4017369858   -1.2144881188   -0.0000520054
     C     0.0123472226   -1.2211155263   -0.0001960142
     C    -0.7161637316   -0.0192932286   -0.0001861457
     C    -2.2065959302   -0.0877977088   -0.0002884503
     O    -2.7813681325   -1.1727942855   -0.0003913041
     C    -2.9932755932    1.2055741490   -0.0002390509
     H    -2.7477980772    1.8070719582    0.8823932035
     H    -2.7476001069    1.8072845278   -0.8826690740
     H    -4.0601742032    0.9761680975   -0.0003825568
     H    -0.5297546086   -2.1603051955   -0.0003019295
     H     1.9784144447   -2.1331666312   -0.0000425591
     F     3.4050341886    0.0331026480    0.0003075067
     H     1.9244094806    2.1586739916    0.0002088051
     H    -0.5605142248    2.1413765641   -0.0000470804
