17
-4.8423530460903669e+02 frame 6   xyz file generated by TeraChem
     C    -0.0184114560    1.2044859297   -0.0000302473
     C     1.3690854060    1.2231942550    0.0001029034
     C     2.0742406842    0.0157201886    0.0000950235
     C     1.4050674480   -1.2147657882   -0.0000584705
     C     0.0211103653   -1.2353118934   -0.0001923079
     C    -0.7610305108   -0.0275011516   -0.0001701108
     C    -2.1899553776   -0.0946236905   -0.0002706931
     O    -2.8321013401   -1.2068478209   -0.0003932825
     C    -2.9821204059    1.2124045975   -0.0002413708
     H    -2.7696981183    1.8385447581    0.8798298463
     H    -2.7695284301    1.8386852321   -0.8801715443
     H    -4.0506254670    0.9755686172   -0.0003636779
     H    -0.5097232022   -2.1821695523   -0.0003080694
     H     1.9824267591   -2.1362004659   -0.0000634370
     F     3.4485801964    0.0379018786    0.0002924555
     H     1.9174522360    2.1618831593    0.0002188016
     H    -0.5504245869    2.1510859465   -0.0000194189
