17
-3.8493481702585177e+02 frame 8   xyz file generated by TeraChem
     C     0.4761304495   -1.2098677317    0.0000166834
     C     1.8706091586   -1.2378735811    0.0000419041
     C     2.5944087732   -0.0431468495    0.0000160214
     C     1.9213802446    1.1835214341   -0.0000326148
     C     0.5304828288    1.2118336699   -0.0000533459
     C    -0.2070878525    0.0163979061   -0.0000295186
     C    -1.6990443594    0.0969871711   -0.0000439855
     O    -2.2656663826    1.1861765606   -0.0000246945
     C    -2.4974151920   -1.1892541863   -0.0000753849
     H    -3.5623184907   -0.9505425421   -0.0001643295
     H    -2.2567749630   -1.7930007960    0.8823097445
     H    -2.2566350798   -1.7930699523   -0.8823731096
     H    -0.0061287326    2.1546458291   -0.0000884362
     H     2.4833490949    2.1129609262   -0.0000534920
     H     3.6804415251   -0.0664780195    0.0000339569
     H     2.3914521669   -2.1907975408    0.0000811447
     H    -0.0746359890   -2.1442574977    0.0000372562
