17
-3.8500195401101297e+02 frame 7   xyz file generated by TeraChem
     C     0.4801196625   -1.2122944692    0.0000086009
     C     1.8661573260   -1.2357865995    0.0000366770
     C     2.6209012543   -0.0446145695    0.0000221961
     C     1.9242451114    1.1841780328   -0.0000212200
     C     0.5421152371    1.2246135083   -0.0000493244
     C    -0.2519444984    0.0254817869   -0.0000363770
     C    -1.6804889981    0.1043107673   -0.0000649555
     O    -2.3170855533    1.2185893697   -0.0000980399
     C    -2.4843313008   -1.1962864063   -0.0000570518
     H    -3.5507272816   -0.9500683794   -0.0001330596
     H    -2.2765883545   -1.8236028320    0.8799376109
     H    -2.2764794672   -1.8236812894   -0.8799693071
     H     0.0180189572    2.1762175105   -0.0000822048
     H     2.4850202029    2.1186186737   -0.0000327732
     H     3.7070028496   -0.0712724154    0.0000446549
     H     2.3799068844   -2.1966312402    0.0000701546
     H    -0.0632948315   -2.1535366485    0.0000222189
