17
-8.4460797321950679e+02 frame 8   xyz file generated by TeraChem
     C    -0.4663817083    1.2019705826    0.0000062125
     C     0.9176495515    1.2183420930    0.0000896756
     C     1.6292420321    0.0054800707    0.0000804878
     C     0.9454339678   -1.2257645032   -0.0000132432
     C    -0.4352099260   -1.2378551607   -0.0000960935
     C    -1.2122392079   -0.0273269449   -0.0000897930
     C    -2.6411320661   -0.0897076030   -0.0001763855
     O    -3.2849931028   -1.1949165733   -0.0002580984
     C    -3.4296571344    1.2196462059   -0.0001855700
     H    -3.2124633109    1.8420772818    0.8802512502
     H    -3.2122990198    1.8421619734   -0.8805218382
     H    -4.4985302867    0.9861056521   -0.0002969210
     H    -0.9683886947   -2.1835907233   -0.0001696558
     H     1.5062245351   -2.1567581091   -0.0000211923
    Cl     3.4089237917    0.0260148762    0.0001852226
     H     1.4554596907    2.1625258974    0.0001603232
     H    -0.9946073112    2.1508555843    0.0000151189
