27
-6.1602142234817552e+02 frame 10   xyz file generated by TeraChem
     C    -1.6489515354    1.1993823508   -0.2412343565
     C    -2.3725502035    0.0248184688    0.0212365432
     C    -1.6632064000   -1.1591994508    0.2750753266
     C    -0.2720281960   -1.1650002218    0.2699842611
     C     0.4563662808    0.0080440203    0.0069941887
     C    -0.2612443924    1.1917796197   -0.2502408330
     H     0.2771344144    2.1057163175   -0.4804938070
     C     1.9374753187   -0.0005130875    0.0015636295
     C     2.6494305753   -1.1295133451   -0.4393152442
     C     4.0435813058   -1.1372168252   -0.4433657339
     C     4.7545728707   -0.0170250390   -0.0057219185
     C     4.0590634167    1.1115290938    0.4351810860
     C     2.6648887783    1.1202719540    0.4381430889
     H     2.1355452004    1.9942446519    0.8053022450
     H     4.6023770376    1.9849452252    0.7846620151
     H     5.8407790849   -0.0234325115   -0.0083991152
     H     4.5748024906   -2.0168978799   -0.7957038290
     H     2.1078796951   -1.9970975999   -0.8038658102
     H     0.2563932178   -2.0858566294    0.4948974705
     H    -2.1919561607   -2.0820228462    0.4880838450
     C    -3.8625779620    0.0808060193    0.0208711486
     O    -4.4503923638    1.1388152221   -0.1905508774
     C    -4.6391938009   -1.1911999341    0.2868499415
     H    -5.7077924698   -0.9723269355    0.2492870420
     H    -4.3960221245   -1.9573240787   -0.4582790481
     H    -4.3851159837   -1.6033290695    1.2702259597
     H    -2.1952245945    2.1138214107   -0.4466007184
