17
-3.9749810543245366e+02 frame 8   xyz file generated by TeraChem
     C     1.2802376039    1.1952720464    0.0000267195
     C    -0.1147144682    1.2133747039    0.0005533539
     C    -0.7901205685   -0.0025407038    0.0004033454
     C    -0.1288163024   -1.2287698406   -0.0002399376
     C     1.2624799355   -1.2244944687   -0.0007537401
     C     1.9812871816   -0.0192026268   -0.0006332377
     C     3.4760336011   -0.0793090762   -0.0011915112
     O     4.0518876410   -1.1623358199   -0.0016046730
     C     4.2542596338    1.2175390833   -0.0011874631
     H     4.0047127020    1.8168414639    0.8818530137
     H     4.0034922372    1.8176966976   -0.8832896810
     H     5.3225384115    0.9950161779   -0.0020150630
     H     1.8084991290   -2.1615530859   -0.0012528709
     H    -0.6788778241   -2.1630666133   -0.0003432270
    Br    -2.7606924413    0.0082061880    0.0011107439
     H    -0.6520046851    2.1548839599    0.0010561583
     H     1.8119757128    2.1402462142    0.0001413699
