17
-3.9757259971214046e+02 frame 7   xyz file generated by TeraChem
     C     1.2777989877    1.2006110529    0.0000077053
     C    -0.1072602828    1.2155516138    0.0005312884
     C    -0.8044856912   -0.0024703909    0.0004820275
     C    -0.1290762480   -1.2351241971   -0.0002089474
     C     1.2526391944   -1.2404523591   -0.0007255802
     C     2.0257610262   -0.0273753373   -0.0006361049
     C     3.4549559407   -0.0864490796   -0.0011418552
     O     4.1010027745   -1.1897550162   -0.0016032157
     C     4.2402397273    1.2246419640   -0.0011512712
     H     4.0219486328    1.8457932708    0.8798315580
     H     4.0203616435    1.8467499954   -0.8810547117
     H     5.3096355025    0.9937331369   -0.0022312817
     H     1.7882712895   -2.1848232198   -0.0011942078
     H    -0.6821070742   -2.1702091794   -0.0002971265
    Br    -2.7987238364    0.0156756560    0.0008653469
     H    -0.6422324039    2.1607675358    0.0010178309
     H     1.8034483174    2.1509388537    0.0001418454
