17
-3.9571812727661074e+02 frame 22   xyz file generated by TeraChem
     C     1.9021873745    1.1923624185   -0.0644851335
     C     0.5077793431    1.2067091807   -0.0443651364
     C    -0.1782167844   -0.0060762147   -0.0016141585
     C     0.4959449790   -1.2287458352   -0.0023898092
     C     1.8870724833   -1.2249396975   -0.0270910980
     C     2.6058013604   -0.0201197894   -0.0459787377
     C     4.1001109985   -0.0774899837   -0.0246875355
     O     4.6792622397   -1.1585809269   -0.0515646731
     C     4.8747591771    1.2199328531    0.0432827237
     H     4.6615564580    1.8423998603   -0.8332926985
     H     5.9426676006    0.9990153323    0.0825825892
     H     4.5857475847    1.7966630461    0.9293485155
     H     2.4330763602   -2.1621626726   -0.0171023505
     H    -0.0479507622   -2.1658407071    0.0281444300
     I    -2.3165943670    0.0126288245    0.1548246686
     H    -0.0265508610    2.1495071196   -0.0498850376
     H     2.4315215156    2.1385875919   -0.0868449583
