26
-5.4076344621749206e+02 frame 115   xyz file generated by TeraChem
     C     2.4972397267   -0.9690365173    0.4509234359
     C     1.2860757423   -0.3909467436    0.0275749839
     C     1.3415501057    0.8971196251   -0.5338338590
     C     2.5511974410    1.5834068334   -0.6474881978
     C     3.7426783344    0.9911629232   -0.2288819994
     C     3.7078873140   -0.2938580133    0.3190928059
     H     4.6240703492   -0.7659773802    0.6630648825
     H     4.6844746358    1.5247452471   -0.3194950369
     H     2.5608854749    2.5791187796   -1.0823936235
     H     0.4332360899    1.3672163054   -0.8932439670
     C     0.0015613812   -1.1392452292    0.1356346430
     C    -0.0241985830   -2.4839105174    0.2166523119
     H    -0.9595765521   -3.0198416305    0.3408463185
     H     0.8763283460   -3.0860770964    0.1607716572
     C    -1.2848063253   -0.3850738242    0.1148671608
     C    -2.3726240398   -0.8884124020   -0.6192487900
     C    -3.5850728876   -0.2027424092   -0.6743517807
     C    -3.7321505716    1.0148591256   -0.0072091959
     C    -2.6616144278    1.5267998833    0.7300597976
     C    -1.4529642220    0.8328113414    0.7955235366
     H    -0.6306835171    1.2413783388    1.3742674058
     H    -2.7665482546    2.4714384683    1.2564184396
     H    -4.6686633975    1.5620754566   -0.0666488503
     H    -4.4060048337   -0.6093032844   -1.2587712507
     H    -2.2515521299   -1.8132001399   -1.1749877915
     H     2.4890466011   -1.9473011401    0.9205797636
