19
-5.8944407095294991e+02 frame 10   xyz file generated by TeraChem
     C     0.6917745760   -1.2255686567   -0.0021206235
     C    -0.6963794889   -1.2257846965   -0.0011254640
     C    -1.3587684154    0.0023924829    0.0003458781
     C    -0.6781593984    1.2181048205    0.0008152041
     C     0.7133006998    1.2000744818   -0.0002807114
     C     1.4083549107   -0.0183884245   -0.0017357093
     C     2.9100420449   -0.0810437369   -0.0027718869
     O     3.4749192045   -1.1675175962   -0.0027888627
     C     3.6889184806    1.2127790717   -0.0036346776
     H     3.4397517521    1.8117833892    0.8798189326
     H     4.7568454281    0.9892912948   -0.0055484374
     H     3.4366788313    1.8128012933   -0.8854934464
     H     1.2490369907    2.1419607540    0.0000472229
     H    -1.2269087958    2.1507871832    0.0019723866
     N    -2.8250704008    0.0141737166    0.0014011045
     O    -3.3978694118    1.1052542807    0.0027843405
     O    -3.4141238890   -1.0682296307    0.0009988494
     H    -1.2607491897   -2.1492904466   -0.0014550717
     H     1.2393238714   -2.1609020806   -0.0032137278
