19
-5.8956108342831340e+02 frame 10   xyz file generated by TeraChem
     C     0.6842936656   -1.2317635953   -0.0018810476
     C    -0.6925815024   -1.2305237865   -0.0008583843
     C    -1.3981986465    0.0019545414    0.0004726291
     C    -0.6683139554    1.2182583209    0.0008013065
     C     0.7112897422    1.1953522063   -0.0003208994
     C     1.4332389553   -0.0256677273   -0.0017146145
     C     2.8948912482   -0.0851593499   -0.0030372492
     O     3.5042958941   -1.1672570368   -0.0039941505
     C     3.6797579140    1.2183646649   -0.0034294835
     H     3.4416079373    1.8233621512    0.8792639359
     H     4.7477421486    0.9903672634   -0.0050979312
     H     3.4390765698    1.8244027914   -0.8847181414
     H     1.2467548542    2.1394457932   -0.0001008344
     H    -1.2115199035    2.1543636156    0.0018872305
     N    -2.7901961147    0.0168686178    0.0013421250
     O    -3.4087867054    1.1407910281    0.0027070224
     O    -3.4334127839   -1.0931820455    0.0006589705
     H    -1.2554976317   -2.1552511905   -0.0010536777
     H     1.2264761143   -2.1720487624   -0.0029115062
