73
-1.1851399776288504e+03 frame 19   xyz file generated by TeraChem
     N     1.6572325852   -0.1719926065   -0.1707619975
     C     1.1898632463    0.7486623106    0.9496876399
     C     1.7787054201    2.1582121421    0.9407058546
     H     2.8503667852    2.1242416247    1.1724315179
     C     1.0696991471    3.0439205213    1.9719521066
     C    -0.3581972615    3.4375087419    1.5724364362
     H    -0.3592053017    3.9813470229    0.6172690343
     H    -1.0150982335    2.5663604812    1.4632113349
     H    -0.8024113412    4.0998010358    2.3283965748
     H     1.0598878456    2.5325276563    2.9474683687
     H     1.6741428237    3.9497912095    2.1159614962
     H     1.6836026097    2.6367966444   -0.0391830636
     H     0.0851239817    0.7333173927    0.8976397026
     H     1.4669823204    0.2466552531    1.8820567167
     C     0.8011237737    0.0261596168   -1.4208763330
     H     1.2735895146   -0.5831495575   -2.1964683295
     C     0.6332988349    1.4609206322   -1.9158418798
     H     1.6054943679    1.9506174413   -2.0488242989
     H     0.0644787180    2.0427109985   -1.1820645777
     C    -0.1052369992    1.5005550653   -3.2718097656
     H    -0.0513482105    2.5336182294   -3.6459990419
     H     0.4521493989    0.8852186730   -3.9932457624
     C    -1.5802055079    1.0610686735   -3.2671351432
     C    -2.5006851953    1.9833362344   -2.4566393942
     H    -3.5458472080    1.6523061146   -2.5272155798
     H    -2.4491829442    3.0187839151   -2.8217275554
     H    -2.2441804457    1.9762292573   -1.3908925768
     H    -1.6746547762    0.0328825725   -2.8893757608
     H    -1.9249568731    1.0308849645   -4.3111035510
     H    -0.1607062263   -0.4246072675   -1.1794777101
     C     3.1159647357    0.0226869569   -0.5290548232
     C     4.1284256968   -0.3531161748    0.5485656569
     H     3.8416593577    0.0665989686    1.5224954982
     H     4.1601470576   -1.4428388013    0.6800005307
     C     5.5236350451    0.1519368241    0.1555134363
     C     6.6011591657   -0.2444913372    1.1747678103
     C     7.9962706450    0.2584404372    0.7903418253
     H     8.0167217874    1.3549937280    0.7166028507
     H     8.7486688846   -0.0393780744    1.5328226217
     H     8.3103728569   -0.1453046661   -0.1829433106
     H     6.3246240777    0.1479207061    2.1654158861
     H     6.6171802281   -1.3405441741    1.2773852170
     H     5.5014966499    1.2478686341    0.0503188084
     H     5.7948882591   -0.2421549946   -0.8367529770
     H     3.2276156474    1.0733313575   -0.8058719439
     H     3.2959941663   -0.5673142527   -1.4317160138
     C     1.3892614653   -1.5893952383    0.3386200620
     H     1.9863962179   -1.7119922916    1.2452201188
     H     0.3296141636   -1.5927984037    0.5974138756
     C     1.6812255756   -2.7066417511   -0.6570450918
     C     1.6424333380   -4.0894994079    0.0184896685
     C     0.2945097810   -4.4502882180    0.6533532695
     H     0.0706960088   -3.8250452815    1.5280875822
     H     0.2885001599   -5.4964693993    0.9856228180
     H    -0.5298931223   -4.3080726765   -0.0586831584
     H     1.8965692579   -4.8387167654   -0.7445551702
     H     2.4400070156   -4.1458668218    0.7738959462
     H     2.6669034728   -2.5762599502   -1.1209003572
     H     0.9314930082   -2.6873362809   -1.4568150572
     C    -4.9075694497   -1.3448798362   -0.2403369780
     C    -6.2992541874   -1.1947168844   -0.1499342284
     C    -6.8486730104   -0.0907129708    0.5236344801
     C    -5.9990353675    0.8628381278    1.1064468348
     C    -4.6106197869    0.7049035723    1.0115203955
     C    -4.0476596278   -0.3956659810    0.3391469942
     C    -2.5335628980   -0.5367793919    0.2373376966
     O    -2.0848063668   -1.5529962263   -0.3703749191
     O    -1.8632655055    0.3988538906    0.7824208500
     H    -3.9372515815    1.4338328552    1.4544163186
     H    -6.4169850903    1.7203701811    1.6311881685
     H    -7.9285235179    0.0249281703    0.5932312768
     H    -6.9555887192   -1.9361328878   -0.6023718571
     H    -4.4670714431   -2.1936618635   -0.7566596736
