66
-9.9337644187311389e+02 frame 26   xyz file generated by TeraChem
     N    -0.8208066811    0.2402391130   -0.2276234353
     C    -0.5726771241   -1.1707794856    0.3007627528
     C    -1.0040552168   -2.2873200713   -0.6472839995
     H    -2.0353433173   -2.1313297316   -0.9782670466
     C    -0.9082794995   -3.6724695620    0.0129986472
     C     0.5263087027   -4.1576340336    0.2391037696
     H     1.0647143446   -4.2158576623   -0.7159359049
     H     1.0959052229   -3.4851552941    0.8869838498
     H     0.5325443063   -5.1582009086    0.6867925565
     H    -1.4599294152   -3.6595511754    0.9631970925
     H    -1.4328455408   -4.3882594215   -0.6321055272
     H    -0.3737391997   -2.2901572085   -1.5441917906
     H     0.4950435409   -1.2302328685    0.5209642707
     H    -1.1193193445   -1.2442846513    1.2436912329
     C    -2.2707209229    0.4488568783   -0.6360854564
     H    -2.3569010003    1.4990046713   -0.9166228940
     C    -3.3328024513    0.1013642969    0.3976442639
     H    -3.1844956746    0.6729536995    1.3202277020
     H    -3.2878515116   -0.9593013629    0.6674959566
     C    -4.7163330488    0.4095020150   -0.1951138703
     H    -4.7715439499    1.4727014674   -0.4673543390
     H    -4.8432283274   -0.1544768234   -1.1298302366
     C    -5.8621276504    0.0707651017    0.7649659378
     C    -7.2360135396    0.3760436152    0.1620435134
     H    -7.3269417847    1.4391602028   -0.0923898776
     H    -8.0441481388    0.1277690775    0.8592363096
     H    -7.3969611100   -0.2008390281   -0.7570751940
     H    -5.7302425260    0.6330607965    1.6991595683
     H    -5.8049576091   -0.9921891646    1.0368047778
     H    -2.4169228050   -0.1408125399   -1.5417910549
     C    -0.4354888490    1.2418908944    0.8523392447
     C     1.0645418405    1.3266920965    1.1084930102
     H     1.4737895042    0.3505925867    1.3768614570
     H     1.5750700698    1.6259477639    0.1903063594
     C     1.4022330960    2.3551004921    2.1901331482
     C     2.9199079187    2.4765936862    2.3993663509
     C     3.5776221116    1.2362303715    3.0078801941
     H     3.1539425477    1.0165606437    3.9965430511
     H     3.4403565046    0.3470513566    2.3841423970
     H     4.6552432407    1.3927757570    3.1370588821
     H     3.3891309614    2.6918923559    1.4280059698
     H     3.1201642262    3.3496357965    3.0340903984
     H     0.9099499224    2.0774215294    3.1333473652
     H     1.0009022365    3.3391975102    1.9113917634
     H    -0.9854062080    0.9530225653    1.7498448313
     H    -0.8221530045    2.2109970728    0.5312710473
     C     0.0495423151    0.4480417590   -1.4623074875
     H     1.0457068765    0.0863744969   -1.1859657056
     H    -0.3374588413   -0.2363539077   -2.2196010904
     C     0.0574060377    1.8667427053   -2.0276907171
     C     1.0846891471    1.9847876990   -3.1644443101
     C     2.5428858490    1.9830563570   -2.6909442044
     H     3.2228751172    2.1032267841   -3.5428893252
     H     2.8073077749    1.0543122149   -2.1760302706
     H     2.7255594054    2.8175571439   -2.0019682931
     H     0.9267339672    1.1700725562   -3.8854269433
     H     0.8815132501    2.9144673790   -3.7101896897
     H     0.3181413434    2.6033468739   -1.2610973711
     H    -0.9342601907    2.1371476190   -2.4047385972
     C     4.7612418151   -1.7303383173    0.0442282385
     H     5.0688209777   -1.9733353078   -0.9778414305
     H     5.0328391273   -2.5464604753    0.7203713482
     H     5.3218407210   -0.8384832352    0.3549867547
     C     3.2544864438   -1.4232465428    0.1117031555
     O     2.7280152798   -0.9135219022   -0.9136757000
     O     2.6593354374   -1.6768954205    1.1962499940
