66
-9.9316743659288750e+02 frame 15   xyz file generated by TeraChem
     N    -0.7946453134    0.2991766348   -0.2957319620
     C    -0.4942253014   -1.1419605739    0.1022394721
     C    -0.8336239371   -2.2017053269   -0.9405216855
     H    -1.8682874632   -2.0918105409   -1.2793845122
     C    -0.6506416391   -3.6150978923   -0.3602923460
     C     0.8017751040   -3.9804383432   -0.0348512189
     H     1.4394954648   -3.8636053672   -0.9193128516
     H     1.2169124954   -3.3564881438    0.7645075552
     H     0.8730615171   -5.0222694465    0.2957942571
     H    -1.2717381821   -3.7195296593    0.5393637897
     H    -1.0441548113   -4.3284861858   -1.0938691276
     H    -0.1871271267   -2.0894882299   -1.8169327113
     H     0.5681444217   -1.1611113702    0.3271465256
     H    -1.0427323537   -1.3181787202    1.0283831168
     C    -2.2694589212    0.4839761348   -0.6300314335
     H    -2.4091961069    1.5548195952   -0.7807512405
     C    -3.2561243563   -0.0334287208    0.4111741304
     H    -3.0230667839    0.3625507263    1.4053045692
     H    -3.2082525622   -1.1259062558    0.4757512600
     C    -4.6830073765    0.3854636458    0.0328918808
     H    -4.7376071872    1.4818050866   -0.0158319439
     H    -4.9223325892    0.0149529099   -0.9737983206
     C    -5.7258969729   -0.1335033854    1.0275508069
     C    -7.1512506843    0.2873555637    0.6620030408
     H    -7.2424952119    1.3801537952    0.6307033341
     H    -7.8778900084   -0.0892231997    1.3907660713
     H    -7.4348704329   -0.0976886258   -0.3252806226
     H    -5.4776367594    0.2348629097    2.0325353667
     H    -5.6642629205   -1.2293735556    1.0757766901
     H    -2.4296685283   -0.0150994740   -1.5863166775
     C    -0.4375974930    1.2024393595    0.8818195565
     C     1.0469939514    1.3203316359    1.2180121502
     H     1.4549160987    0.3520454861    1.5251380672
     H     1.6228850898    1.6545279670    0.3494543779
     C     1.2282529902    2.3417005019    2.3515893994
     C     2.6983688977    2.6351903625    2.6835657594
     C     3.4590184410    1.4472808139    3.2793886202
     H     2.9661276053    1.0846801016    4.1903645468
     H     3.5226764054    0.6088007091    2.5783352455
     H     4.4835491058    1.7328253449    3.5444049001
     H     3.2066575204    2.9796520233    1.7718907422
     H     2.7305772175    3.4739453792    3.3904435622
     H     0.7116425768    1.9824815376    3.2522571496
     H     0.7368504371    3.2795393017    2.0598655567
     H    -0.9821103390    0.8084365883    1.7399807553
     H    -0.8484721484    2.1849945006    0.6457115215
     C     0.0351175145    0.6494246538   -1.5274819169
     H     1.0530874477    0.3433473651   -1.2932397433
     H    -0.3316269058    0.0033852196   -2.3253381605
     C    -0.0266009950    2.1066398179   -1.9727029753
     C     0.9452560131    2.3496028704   -3.1411564249
     C     2.4246582495    2.2343743978   -2.7547310666
     H     3.0666432023    2.5255857390   -3.5933674726
     H     2.7002529294    1.2139908610   -2.4676873090
     H     2.6568070562    2.8933480770   -1.9087327978
     H     0.7164818631    1.6508712440   -3.9571232109
     H     0.7527109766    3.3555532060   -3.5321899130
     H     0.2383086498    2.7808405961   -1.1514465011
     H    -1.0413809922    2.3639200295   -2.2915459026
     C     4.4951883544   -2.6918649900   -0.3854057610
     H     4.0106866893   -3.5537238527   -0.8535520402
     H     4.9531667143   -2.9815100574    0.5595831521
     H     5.2374671367   -2.2346560256   -1.0462087056
     C     3.3593697330   -1.6191918803   -0.2560628413
     O     2.7573295047   -1.1696259384   -1.2095494238
     O     3.2599017286   -1.4052360307    1.0109372907
