21
-4.2044495799056750e+02 frame 39   xyz file generated by TeraChem
     C    -1.2365484015   -1.4009627435    0.0227716811
     N    -1.1694440109    0.0586384496    0.1178773803
     C     0.0000727667    0.8073957812    0.0256079460
     O     0.0002655718    2.0275008282   -0.0578488027
     N     1.1694394933    0.0583654735    0.1181323963
     C     1.2362288520   -1.4012352443    0.0228638093
     C    -0.0001966223   -1.9450447921   -0.6660468343
     H    -0.0001255600   -1.6538527473   -1.7217652322
     H    -0.0003246481   -3.0358959062   -0.6095705807
     H     1.3326216101   -1.7896778909    1.0482005818
     H     2.1544128092   -1.6499460824   -0.5154985505
     C     2.4084436520    0.7937257093    0.2871311002
     H     2.7989678497    1.0677194635   -0.7029778492
     H     2.2155211102    1.7075464454    0.8498933420
     H     3.1295554554    0.1506884677    0.7929355674
     C    -2.4083449873    0.7942193910    0.2866559309
     H    -3.1293625768    0.1515994700    0.7931440570
     H    -2.2152073938    1.7084372855    0.8486815293
     H    -2.7991494505    1.0674420160   -0.7035554289
     H    -2.1547458635   -1.6495444288   -0.5156245178
     H    -1.3330644559   -1.7892833454    1.0481393748
