21
-4.2065637818654443e+02 frame 12   xyz file generated by TeraChem
     C    -1.2396137623   -1.3615624114    0.1381624014
     N    -1.1793533780    0.0809267229   -0.0858523942
     C     0.0002286428    0.7972597027   -0.0543596740
     O     0.0004124835    2.0397303498   -0.0544510680
     N     1.1796170830    0.0805414741   -0.0872365931
     C     1.2382968431   -1.3611694268    0.1421145634
     C     0.0003538836   -2.0372989984   -0.4241681923
     H     0.0023169180   -1.9555399956   -1.5169644921
     H    -0.0001478615   -3.0994724699   -0.1615788576
     H     1.3320092249   -1.5736407495    1.2192571143
     H     2.1435921472   -1.7417489447   -0.3423914252
     C     2.4273533907    0.8030970245    0.1060923226
     H     2.3019812171    1.8319321071   -0.2258816917
     H     2.7361240202    0.8052851843    1.1621388572
     H     3.2157494807    0.3220364893   -0.4817475706
     C    -2.4267102806    0.8036909852    0.1090086177
     H    -3.2157143613    0.3233544339   -0.4786164224
     H    -2.7346514887    0.8050233800    1.1652903883
     H    -2.3013408929    1.8327640349   -0.2222311089
     H    -2.1429475179   -1.7401442741   -0.3516335297
     H    -1.3385405914   -1.5772290182    1.2141956548
