12
-2.4853625205652884e+02 frame 7   xyz file generated by TeraChem
     C    -1.6653388333   -0.7647361510    0.0002320488
     N    -0.4193612132   -0.0159742203    0.0027065512
     C     0.7815300945   -0.6363368432   -0.0015561607
     O     1.8811854100   -0.0806887539   -0.0045696036
     H     0.6820044169   -1.7359889745   -0.0022200944
     C    -0.5133896935    1.4353386614    0.0016854914
     H    -1.0536600105    1.7806045548    0.8909042040
     H    -1.0516521494    1.7798698403   -0.8891063077
     H     0.4950382674    1.8486041965    0.0025454456
     H    -2.2619415667   -0.5171607428    0.8861830468
     H    -2.2545041726   -0.5256618281   -0.8931349402
     H    -1.4497872495   -1.8357949392    0.0063654187
