12
-2.4829902359694634e+02 frame 23   xyz file generated by TeraChem
     C    -1.6706370412   -0.7707086433    0.0401189056
     N    -0.4532253910   -0.0023840662    0.0133740543
     C     0.8141628044   -0.6727276020   -0.0231916962
     O     1.8400461121   -0.0390131657   -0.0585276750
     H     0.7276994274   -1.7645897760   -0.0218808589
     C    -0.5068616665    1.4380649321   -0.0108997856
     H    -1.2799018133    1.7715690658    0.6877738597
     H    -0.8145303830    1.7389176953   -1.0251276685
     H     0.4743739059    1.8474010873    0.2185745007
     H    -2.1570703707   -0.5961706829    1.0125647922
     H    -2.3449481496   -0.3883318629   -0.7361816476
     H    -1.4589841345   -1.8299521816   -0.0965616807
