16
-3.2598234932635535e+02 frame 9   xyz file generated by TeraChem
     C    -1.1813647434    1.2054233541    0.3187184739
     C     0.2822972701    1.3130584348   -0.1208043518
     C     1.0691388736    0.0150338868   -0.0089294827
     O     2.3064886131    0.0116411308    0.0054980956
     N     0.3573057381   -1.1398332354    0.0168972537
     H     0.9192079928   -1.9780955348    0.1171655930
     C    -1.0962879939   -1.2891802787    0.1296129041
     C    -1.8203341123   -0.0260128908   -0.3260751093
     H    -1.7633039719    0.0591909380   -1.4190392480
     H    -2.8785721941   -0.1117986260   -0.0575714801
     H    -1.3977948235   -2.1532344706   -0.4708108429
     H    -1.3593363620   -1.5080314943    1.1745894445
     H     0.3302907587    1.6119810292   -1.1774373956
     H     0.8293871156    2.0739689952    0.4437139275
     H    -1.2375480162    1.1180101119    1.4119089674
     H    -1.7219786445    2.1166896497    0.0410295507
