13
-3.2458447504901574e+02 frame 6   xyz file generated by TeraChem
     C     0.1561344954   -1.2362820771    0.0000035715
     C     1.5339740243   -1.2170732023   -0.0000341036
     C     2.2660029998   -0.0001455087   -0.0000534923
     C     1.5341532848    1.2168918879   -0.0000348727
     C     0.1563172229    1.2362973440    0.0000028451
     C    -0.6048855338    0.0000650253    0.0000235351
     C    -1.9944075695    0.0001694925    0.0000757886
     N    -3.1835042450    0.0002554934    0.0001045231
     H    -0.3796398886    2.1826328405    0.0000151619
     H     2.0720759872    2.1643842996   -0.0000511026
     H     3.3516574555   -0.0002259498   -0.0000813851
     H     2.0717598855   -2.1646433520   -0.0000493785
     H    -0.3799600185   -2.1825396932    0.0000169094
