18
-4.6022772889673701e+02 frame 6   xyz file generated by TeraChem
     C     1.1010123041    1.2300527430    0.0001257661
     C     2.4677150169    1.0322651445    0.0001568986
     C     3.0242210856   -0.2693856237    0.0000008204
     C     2.1366857477   -1.3707385684   -0.0001975106
     C     0.7648493013   -1.1969302475   -0.0002379123
     C     0.1804715904    0.1211086802   -0.0000751017
     C    -1.2187593322    0.3695090266   -0.0000876926
     O    -1.7937652683    1.4888457109    0.0001048118
     O    -1.9895696151   -0.8084943989   -0.0003606053
     C    -3.3943691567   -0.6089390096   -0.0001331235
     H    -3.8427088016   -1.6060233099   -0.0004676114
     H    -3.7291780254   -0.0576322830   -0.8872677473
     H    -3.7289896918   -0.0583281147    0.8875107181
     H     0.1092145465   -2.0622187322   -0.0003834940
     H     2.5407046631   -2.3827876529   -0.0003158904
     H     4.1002576973   -0.4181753861    0.0000297669
     H     3.1291232106    1.8982531051    0.0003047125
     H     0.6895970275    2.2356999166    0.0002479947
