18
-4.6016763405008646e+02 frame 8   xyz file generated by TeraChem
     C     1.0843469803    1.2179399730    0.0001165327
     C     2.4640543602    1.0284524324    0.0000476912
     C     2.9905236914   -0.2667114456   -0.0000851878
     C     2.1346628556   -1.3718289429   -0.0001537299
     C     0.7532001486   -1.1862790822   -0.0000993079
     C     0.2230726172    0.1119497258    0.0000388034
     C    -1.2427236356    0.3667759978    0.0000910661
     O    -1.7488431390    1.4779021030    0.0003073569
     O    -1.9652302134   -0.7685873318   -0.0001771883
     C    -3.3959465068   -0.6050419620   -0.0002175333
     H    -3.8029850912   -1.6154838254   -0.0008814368
     H    -3.7155437058   -0.0611153325   -0.8922666221
     H    -3.7157207847   -0.0622465293    0.8924634203
     H     0.0856238707   -2.0401344581   -0.0001546961
     H     2.5441339917   -2.3776073192   -0.0002517239
     H     4.0666576560   -0.4148489199   -0.0001354938
     H     3.1285512860    1.8873297908    0.0000954792
     H     0.6586779188    2.2156161260    0.0002173701
