12
-2.3202829138463170e+02 frame 4   xyz file generated by TeraChem
     C    -1.2151796349    0.6611345159    0.0000187612
     C    -0.0051410909    1.4237083421    0.0000193167
     C     1.1987361427    0.7681204990    0.0000098615
     C     1.2151794138   -0.6611232810    0.0000009709
     C     0.0051409118   -1.4236972377    0.0000004717
     C    -1.1987362982   -0.7681092797    0.0000098923
     H    -2.1380674604   -1.3091929852    0.0000101179
     H     0.0605188061   -2.5063320158   -0.0000069687
     H     2.1685460832   -1.1804390856   -0.0000040434
     H     2.1380673034    1.3092041969    0.0000095552
     H    -0.0605189827    2.5063431041    0.0000267204
     H    -2.1685462939    1.1804503270    0.0000236445
