12
-2.3227149341898956e+02 frame 5   xyz file generated by TeraChem
     C    -1.2275401885    0.6682830190    0.0000184879
     C    -0.0350036017    1.3972037396    0.0000187505
     C     1.1925475270    0.7288794613    0.0000101904
     C     1.2275400796   -0.6682718420    0.0000012756
     C     0.0350034362   -1.3971924482    0.0000009619
     C    -1.1925478319   -0.7288683714    0.0000095620
     H    -2.1197528629   -1.2955768468    0.0000093726
     H     0.0621756134   -2.4835082483   -0.0000060293
     H     2.1819731947   -1.1878512458   -0.0000054417
     H     2.1197524948    1.2955880100    0.0000103669
     H    -0.0621756055    2.4835195505    0.0000256893
     H    -2.1819733551    1.1878623222    0.0000251138
