15
-4.2085902183951936e+02 frame 6   xyz file generated by TeraChem
     C    -0.5381470863    1.2174637566    0.0000782426
     C    -1.9302215674    1.1940025100    0.0000891560
     C    -2.6073956482   -0.0293781004    0.0000397046
     C    -1.8900018893   -1.2288526263   -0.0000213209
     C    -0.4963295535   -1.2094543092   -0.0000333629
     C     0.1855342597    0.0163572379    0.0000180457
     C     1.6677914874    0.0928955861    0.0000115788
     O     2.3064528662    1.1324402063    0.0000424220
     O     2.2632712209   -1.1192466946   -0.0000496513
     H     3.2282126070   -0.9660524729   -0.0000580136
     H     0.0615891158   -2.1387388183   -0.0000807421
     H    -2.4162206561   -2.1787010696   -0.0000595406
     H    -3.6934455343   -0.0477052102    0.0000487753
     H    -2.4874955815    2.1259360931    0.0001362272
     H     0.0019191597    2.1582015115    0.0001161792
