12
-3.0651999585436954e+02 frame 5   xyz file generated by TeraChem
     C     1.3384366539   -0.8068972046   -0.1259080347
     C     1.4940282818    0.6798556550    0.2147320695
     C     0.1207235822    1.2391918347   -0.1701826591
     C    -0.8045831173    0.0479518869    0.0054827412
     O    -2.0138794299    0.0309045594    0.0831753047
     O    -0.0758227325   -1.0936564386    0.0628078455
     H    -0.2224185079    2.0812419973    0.4340972521
     H     0.0810276494    1.5407371477   -1.2245619962
     H     1.6693440410    0.8049540677    1.2876761941
     H     2.3224266950    1.1388371602   -0.3287352284
     H     1.8951945111   -1.4792188265    0.5277255231
     H     1.5855502732   -1.0229654393   -1.1701671117
