12
-3.0653742226763518e+02 frame 17   xyz file generated by TeraChem
     C     1.3173858897   -0.8089751554   -0.2289269200
     O    -0.0117770635   -1.0153286856   -0.6478932074
     C    -0.8244001047   -0.0161181011    0.1409660615
     O    -2.0733143082    0.0159978675   -0.1329454193
     C     0.0678771663    1.2423049873    0.1130797286
     C     1.5068326592    0.7242482558   -0.0921915160
     H     2.1823979884    0.9713163944    0.7348217290
     H     1.9456904283    1.1417320010   -1.0053232096
     H    -0.0453811149    1.8299205649    1.0333436054
     H    -0.2337630558    1.9082328964   -0.7202697495
     H     1.5019225704   -1.2889297947    0.7503522822
     H     2.0014422276   -1.2596228044   -0.9584237805
