14
-4.1685353124696348e+02 frame 7   xyz file generated by TeraChem
     C    -1.2212004272   -0.0377566652   -0.0000319706
     C    -1.2224718746    1.4198849826   -0.0000334582
     C     0.0000230627    2.0876815499    0.0000037198
     C     1.2225026388    1.4198533116    0.0000419994
     C     1.2211955144   -0.0377873678    0.0000429234
     C    -0.0000098940   -0.7249490145    0.0000059352
     H    -0.0000230541   -1.8114507608    0.0000066467
     C     2.4256079720   -0.7689441325    0.0000799488
     N     3.4397679945   -1.3634096787    0.0001089517
     H     2.1638577125    1.9576665780    0.0000702199
     H     0.0000365404    3.1764761649    0.0000027481
     H    -2.1638135739    1.9577218294   -0.0000626984
     C    -2.4256298539   -0.7688832413   -0.0000689164
     N    -3.4398056579   -1.3633239555   -0.0000969492
