19
-5.5241866337927547e+02 frame 9   xyz file generated by TeraChem
     C     0.2222872361   -1.3187191762    0.0000627724
     C     1.6075324930   -1.2221275643   -0.0000076554
     C     2.2084539505    0.0483052701   -0.0000658288
     C     1.4223394507    1.2126563482   -0.0000527454
     C     0.0366369678    1.1036558028    0.0000231278
     C    -0.5669911465   -0.1611929337    0.0000836263
     C    -2.0503570495   -0.3292878599    0.0001784628
     O    -2.6110543395   -1.4117512248    0.0001475634
     O    -2.6987135727    0.8447805739    0.0002339105
     C    -4.1387717683    0.7694892357    0.0003224743
     H    -4.4888797537    0.2472846581   -0.8929887613
     H    -4.4812084132    1.8033070774    0.0005862404
     H    -4.4887460978    0.2468578479    0.8934330658
     H    -0.5761280234    1.9967683218    0.0000358601
     H     1.8987700335    2.1867831540   -0.0001003183
     C     3.6367176315    0.1584108818   -0.0001382270
     N     4.7966896747    0.2484867685   -0.0001974582
     H     2.2246918475   -2.1137062112   -0.0000167567
     H    -0.2620393206   -2.2884527700    0.0001091473
