19
-5.5250730586408224e+02 frame 8   xyz file generated by TeraChem
     C     0.2346261626   -1.3286866504    0.0000276594
     C     1.6022493350   -1.2329125563   -0.0000289333
     C     2.2492021003    0.0494712700   -0.0000609454
     C     1.4163509121    1.2186079030   -0.0000275313
     C     0.0482267763    1.1127333704    0.0000315919
     C    -0.6034849567   -0.1653923359    0.0000607083
     C    -2.0285406479   -0.3276046831    0.0001319524
     O    -2.6470816667   -1.4060216156    0.0001669246
     O    -2.7127217555    0.8754092615    0.0001805415
     C    -4.1353893556    0.7683947464    0.0003309500
     H    -4.4955416368    0.2403935813   -0.8888614799
     H    -4.5107774956    1.7934640761    0.0003984119
     H    -4.4953457223    0.2403455877    0.8895738477
     H    -0.5566479715    2.0133724552    0.0000580853
     H     1.8865309583    2.1985224181   -0.0000488009
     C     3.6470211287    0.1574740566   -0.0001207576
     N     4.8213226293    0.2494784770   -0.0001690238
     H     2.2136407845   -2.1313984904   -0.0000486838
     H    -0.2424097785   -2.3041026718    0.0000539830
