14
-4.1686127501273347e+02 frame 6   xyz file generated by TeraChem
     C     1.1868707119    1.4066033496   -0.0000303310
     C     2.3774783936    0.7176900934   -0.0000161668
     C     2.3775104946   -0.7176885392    0.0000163306
     C     1.1868961081   -1.4065868992    0.0000332977
     C    -0.0687203109   -0.7338312162    0.0000196143
     C    -0.0687338759    0.7338323116   -0.0000133771
     C    -1.2631367052    1.4620072265   -0.0000313621
     N    -2.2756383408    2.0659930381   -0.0000412550
     C    -1.2631114233   -1.4620234093    0.0000398986
     N    -2.2756047890   -2.0660247347    0.0000532211
     H     1.1845584248   -2.4937263657    0.0000579939
     H     3.3184415498   -1.2600679558    0.0000266110
     H     3.3184004754    1.2600832886   -0.0000287423
     H     1.1845298871    2.4937432123   -0.0000549329
