14
-4.1677471637684437e+02 frame 4   xyz file generated by TeraChem
     C    -0.6942217505   -1.2219973541   -0.0000228787
     C     0.6942269492   -1.2219998678   -0.0000300437
     C     1.3875425205   -0.0000012954   -0.0000362106
     C     0.6942342177    1.2220009777   -0.0000355935
     C    -0.6942147212    1.2220016067   -0.0000284537
     C    -1.3875318960    0.0000042701   -0.0000228170
     C    -2.8202271745    0.0000079190   -0.0000203120
     N    -3.9833622573    0.0000092280   -0.0000110446
     H    -1.2424294302    2.1572348991   -0.0000287006
     H     1.2424529293    2.1572319979   -0.0000414723
     C     2.8202376853   -0.0000058276   -0.0000469806
     N     3.9833726766   -0.0000141216   -0.0000309002
     H     1.2424420306   -2.1572329865   -0.0000317617
     H    -1.2424407796   -2.1572281454   -0.0000189308
