24
-1.3584285847272704e+03 frame 12   xyz file generated by TeraChem
     C     0.9645250475    1.2824996816   -0.0441999598
     C     2.3445109735    1.1023757261   -0.1749101127
     C     2.9553557729   -0.1492938013   -0.0838030207
     C     2.1470109802   -1.2682330191    0.1328064075
     C     0.7637249175   -1.1748013213    0.2833749581
     C     0.1957294579    0.1225020916    0.2177969886
     S    -1.5673565220    0.2625070127    0.4187218657
     O    -2.0213546240    1.6446818880    0.5275686897
     O    -2.0802810590   -0.7250422291    1.3647109982
    Cl    -2.2802624458   -0.3890039603   -1.5291306683
     C    -0.0079159303   -2.4560395259    0.4937355263
     H    -0.8658497408   -2.5429506042   -0.1787832158
     H    -0.3914429523   -2.5242963167    1.5150935732
     H     0.6542018767   -3.3057957830    0.3139027653
     H     2.6043851894   -2.2524374421    0.1799540787
     C     4.4484232788   -0.2926454809   -0.2094759247
     H     4.7153652709   -1.2383512807   -0.6911241811
     H     4.9158933523   -0.2873365194    0.7836505968
     H     4.8801516278    0.5324426610   -0.7831475701
     H     2.9586134201    1.9776081955   -0.3660111198
     C     0.4300203189    2.6867610700   -0.1961018545
     H     1.2527794315    3.3537008653   -0.4630692239
     H    -0.0223257701    3.0487678248    0.7310057988
     H    -0.3358617716    2.7502973675   -0.9734146959
