24
-1.3585760509094357e+03 frame 92   xyz file generated by TeraChem
     C     0.9752738900    1.3012851065   -0.0221442833
     C     2.3510951776    1.0970277550   -0.2087721011
     C     2.9499595991   -0.1600059503   -0.1128519044
     C     2.1235019572   -1.2692022859    0.0889547857
     C     0.7468170641   -1.1379871984    0.2710251691
     C     0.2056452503    0.1650556561    0.3038530871
     S    -1.5540863296    0.2629756494    0.8496542740
     O    -2.0784793954    1.6310803870    0.5543436115
     O    -1.6612377999   -0.2599993471    2.2344311631
    Cl    -2.2031050034   -1.2400729246   -2.2853725646
     C    -0.1072230385   -2.3735728855    0.3993405464
     H    -0.8082477483   -2.3697121053   -0.4522777447
     H    -0.6679815301   -2.4107816335    1.3336722536
     H     0.5054024101   -3.2754657121    0.3168809845
     H     2.5572637419   -2.2657949056    0.1037251831
     C     4.4459310854   -0.3219198548   -0.1993116391
     H     4.7276502675   -1.2148778842   -0.7655876090
     H     4.8645983996   -0.4349639608    0.8110270845
     H     4.9236154032    0.5495322439   -0.6558174903
     H     2.9733984478    1.9638678739   -0.4169909001
     C     0.4499309877    2.7082316019   -0.1771963209
     H     1.2806854376    3.3881665169   -0.3842923816
     H    -0.0902742356    3.0617632205    0.7016978658
     H    -0.2520939384    2.7632877368   -1.0188403692
