18
-1.2797865722145248e+03 frame 5   xyz file generated by TeraChem
     C    -0.8767815193   -1.2249348042    0.1857280557
     C    -2.2563099142   -1.2086021893    0.0103551532
     C    -2.9642735556    0.0002258107   -0.0812303376
     C    -2.2561822459    1.2084425459    0.0179945433
     C    -0.8767374565    1.2235453685    0.1936447908
     C    -0.2106117062   -0.0010362426    0.2805461188
     S     1.5407692703   -0.0018787632    0.5074045570
     O     1.9874210713   -1.2763373903    1.0630442264
     O     1.9873472682    1.2681215518    1.0732233555
    Cl     2.2561442096    0.0062797721   -1.5227541986
     H    -0.3328310833    2.1579929320    0.2691033725
     H    -2.7935797405    2.1501794818   -0.0405617956
     C    -4.4525799449    0.0012363003   -0.3098450172
     H    -4.9210456348    0.8871163084    0.1287413577
     H    -4.9197883737   -0.8934537448    0.1117516000
     H    -4.6700124729    0.0115772100   -1.3857577566
     H    -2.7937942036   -2.1498916108   -0.0541450438
     H    -0.3329494678   -2.1598916363    0.2551484184
