18
-1.2799324036234252e+03 frame 134   xyz file generated by TeraChem
     C    -0.8279792886   -1.1894489526    0.1720242826
     C    -2.2081540117   -1.1912230967   -0.0330496031
     C    -2.9233939499    0.0054448303   -0.1748386082
     C    -2.2015280586    1.2087986889   -0.2194584692
     C    -0.8316761862    1.2357663923    0.0383274719
     C    -0.1760037663    0.0342932396    0.3132236661
     S     1.5589355950    0.0502304931    0.8551379343
     O     1.9821611868   -1.3765460005    0.9888990674
     O     1.6550293679    0.9495596513    2.0601767904
    Cl     2.0480135735    0.2177771402   -2.1967089102
     H    -0.2915505614    2.1772798861    0.0255911480
     H    -2.7282485642    2.1404915824   -0.4096743946
     C    -4.4316532627    0.0000329159   -0.2406582286
     H    -4.8377509056    0.9391984692    0.1489405172
     H    -4.8337836021   -0.8182787252    0.3665415123
     H    -4.8111724823   -0.1296941158   -1.2612252156
     H    -2.7426044583   -2.1377203286   -0.0368483432
     H    -0.2844361251   -2.1172711699    0.3059907824
