15
-5.3299536354668840e+02 frame 6   xyz file generated by TeraChem
     C    -1.4131573770    1.4287235469    0.0000154649
     C    -0.2325756338    0.6976229733    0.0000011673
     C    -0.2323569447   -0.6976621517   -0.0000193524
     C    -1.4132272329   -1.4282346807   -0.0000351238
     C    -2.6099420387   -0.7018208414   -0.0000303434
     C    -2.6091675263    0.7011387863   -0.0000061844
     H    -3.5561105392    1.2313946400   -0.0000036443
     H    -3.5569518127   -1.2320139469   -0.0000431078
     H    -1.4071889717   -2.5128822478   -0.0000503725
     C     1.1728211525   -1.1467283809   -0.0000162661
     O     1.6546892168   -2.2486210958   -0.0000185280
     O     1.9785549811    0.0003060572    0.0000201291
     C     1.1727478060    1.1469643907    0.0000010782
     O     1.6557945725    2.2484026114    0.0000541965
     H    -1.4074350519    2.5134076394    0.0000331868
