14
-8.0522037914565465e+02 frame 7   xyz file generated by TeraChem
     C    -1.1541978442   -1.2448033374   -0.0004864535
     C    -2.5130894757   -0.9530382467   -0.0005569490
     C    -2.9408812929    0.3785356199   -0.0000670217
     C    -2.0071896971    1.4182859580    0.0004880708
     C    -0.6436624255    1.1357707166    0.0005511448
     C    -0.2111295030   -0.1988910903    0.0000660448
     C     1.2033173446   -0.6041241884    0.0001129342
     O     1.6372433303   -1.7189648231   -0.0001235414
    Cl     2.4226872674    0.7831521360    0.0005731384
     H     0.0771924724    1.9438532187    0.0009840568
     H    -2.3409345423    2.4509565879    0.0008754805
     H    -4.0029338786    0.6052112679   -0.0001179044
     H    -3.2382909046   -1.7606599081   -0.0009918227
     H    -0.8088078508   -2.2724259111   -0.0008631777
