14
-8.0531069583831004e+02 frame 10   xyz file generated by TeraChem
     C    -1.1830428635   -1.2626657259   -0.0005048305
     C    -2.5290329818   -0.9500953878   -0.0005427981
     C    -2.9688345998    0.3886630750   -0.0000437889
     C    -2.0004015711    1.4107960485    0.0004699463
     C    -0.6447428697    1.1294547500    0.0005185347
     C    -0.1780586833   -0.2260064341    0.0000579107
     C     1.1555982418   -0.6625288561    0.0001594440
     O     1.7238684957   -1.7425793378   -0.0002061799
    Cl     2.4891829552    0.9221911203    0.0007365742
     H     0.0785518554    1.9356011007    0.0009088859
     H    -2.3183500811    2.4514853514    0.0008413521
     H    -4.0284385420    0.6256032313   -0.0000642549
     H    -3.2578207451   -1.7583853465   -0.0009768849
     H    -0.8591556105   -2.2986755890   -0.0009099106
