22
-3.8832871688642530e+02 frame 7   xyz file generated by TeraChem
     C    -0.0958759633   -1.0399013323    0.0011550485
     C    -1.4761818852   -1.2046067606    0.0049246828
     C    -2.3457172471   -0.1010573764    0.0051899050
     C    -1.7759147935    1.1765229981    0.0052501864
     C    -0.3914041405    1.3465165290    0.0012508463
     C     0.4809481542    0.2455701521   -0.0010545808
     C     1.9310352817    0.4856409575   -0.0026282910
     C     2.9081259019   -0.4342074120   -0.0003092480
     C     4.3724845342   -0.1122788380   -0.0024054499
     H     4.8726251978   -0.5384961478    0.8781308900
     H     4.8713582989   -0.5440073549   -0.8809740294
     H     4.5463469997    0.9690589672   -0.0059049155
     H     2.6545439063   -1.4940968593    0.0035569801
     H     2.2173944469    1.5382625274   -0.0060651774
     H     0.0256791564    2.3509366547    0.0027147986
     H    -2.4229971903    2.0505275197    0.0092800404
     C    -3.8417964343   -0.2957386543   -0.0095371878
     H    -4.3661913314    0.6403482304    0.2060372534
     H    -4.1859781927   -0.6521884672   -0.9892730090
     H    -4.1538763773   -1.0422560977    0.7299742957
     H    -1.8931529232   -2.2093230508    0.0092347983
     H     0.5404028009   -1.9201245846    0.0025571633
