9
-3.7931494210051596e+02 frame 5   xyz file generated by TeraChem
     C     0.6684047686    1.2979610964    0.0000145285
     C    -0.6683788160    1.2981509388   -0.0000321702
     C    -1.1291988954   -0.1140650481   -0.0000088166
     O    -2.2394998032   -0.5731656953   -0.0000288756
     O    -0.0000139687   -0.9331480570    0.0000065614
     C     1.1290235854   -0.1143567670   -0.0000103235
     O     2.2395941447   -0.5729842375    0.0000476872
     H    -1.3582953374    2.1315186811   -0.0000621699
     H     1.3584568221    2.1312098886    0.0000454788
