9
-3.7943344955121438e+02 frame 6   xyz file generated by TeraChem
     C     0.6990836472    1.2745283413    0.0000070189
     C    -0.6990482032    1.2744834396   -0.0000235572
     C    -1.1488578254   -0.0760634558   -0.0000231013
     O    -2.2716353482   -0.5982831716   -0.0000404519
     O     0.0000967806   -0.9000491752    0.0000055432
     C     1.1488824164   -0.0761253484    0.0000226176
     O     2.2715634900   -0.5986256703    0.0000490079
     H    -1.3678004347    2.1255869022   -0.0000413020
     H     1.3678079773    2.1256689384    0.0000161248
