17
-1.4451067051041564e+03 frame 109   xyz file generated by TeraChem
     C     0.1216904047   -1.8411574633   -0.1538334905
     C     1.2541555407   -2.6515171883   -0.0319140990
     C     2.5260476207   -2.0817504702    0.0204237747
     C     2.6764793472   -0.6975258640   -0.0606816337
     C     1.5400687994    0.1056323678   -0.0753310342
     C     0.2581108411   -0.4560602272   -0.1059464274
     S    -1.2907803355    0.4974507860    0.1665213738
     O    -1.0035327689    1.5340610689    1.2084836371
     O    -1.7600023324    0.9464716554   -1.1762870991
    Cl    -3.3694118519   -1.9302801763   -0.1272178006
     N     1.7317984645    1.5553996064   -0.0640396749
     O     2.6647854336    2.0258557483    0.5789312346
     O     0.9749455589    2.2184022519   -0.7752605525
     H     3.6563070383   -0.2346984496   -0.0761358166
     H     3.4050071569   -2.7079874234    0.1297080609
     H     1.1353825544   -3.7285085327    0.0305585691
     H    -0.8720197717   -2.2642041898   -0.2769548216
