17
-1.4449507850110731e+03 frame 12   xyz file generated by TeraChem
     C     0.1307383579   -1.9300092210   -0.2833495021
     C     1.2981120633   -2.6974570516   -0.2415876012
     C     2.5321935183   -2.0918852398   -0.0227525774
     C     2.6125511949   -0.7074290759    0.1236431845
     C     1.4563563233    0.0599417705    0.0493371784
     C     0.2020109785   -0.5495167244   -0.1272127943
     S    -1.3200593629    0.4277347804   -0.1082397401
     O    -1.2299423945    1.4591068944    0.9164660734
     O    -1.7722313747    0.7123530392   -1.4642340142
    Cl    -2.7195070244   -0.9751070887    0.6788738197
     N     1.6309791708    1.5142144828    0.0705939791
     O     2.5230012222    1.9726156866    0.7775992346
     O     0.9010803073    2.1826462085   -0.6616189094
     H     3.5645482963   -0.2101136253    0.2643880790
     H     3.4373946237   -2.6871930838    0.0243627087
     H     1.2276648478   -3.7721825747   -0.3681307987
     H    -0.8258590480   -2.4181356771   -0.4171141200
