21
-1.9145412081016602e+03 frame 9   xyz file generated by TeraChem
     C    -0.3282804293    1.2253617599    0.2046011990
     C    -0.9863828461    0.0007448867    0.2929546190
     C    -0.3295780874   -1.2246331111    0.2053565072
     C     1.0518267840   -1.2088369535    0.0269036169
     C     1.7431362074   -0.0007399825   -0.0620374938
     C     1.0531273790    1.2081437042    0.0262724038
     C     1.8256614366    2.5007423750   -0.0374528349
     F     1.1063113060    3.4976404695   -0.5902812220
     F     2.9546578943    2.3549520229   -0.7647371395
     F     2.1984923432    2.9127634988    1.1967551580
     H     2.8151400750   -0.0013480351   -0.2141088610
     C     1.8229979522   -2.5022759890   -0.0364930977
     F     2.1958053755   -2.9142106517    1.1977575606
     F     1.1023174616   -3.4985583036   -0.5886490971
     F     2.9518903354   -2.3579270647   -0.7641776352
     H    -0.8770703402   -2.1574774467    0.2670431606
     S    -2.7535063475    0.0017453440    0.5236420076
     O    -3.1755540226   -1.2712400961    1.0962643654
     O    -3.1746020676    1.2764579675    1.0931083758
    Cl    -3.4425156145   -0.0004810515   -1.4891978474
     H    -0.8748232951    2.1587900569    0.2657464546
