13
-9.7724544960317121e+02 frame 144   xyz file generated by TeraChem
     C     2.2599395179   -0.1481701667   -0.2306108584
     F     2.2838426122    0.2087120091   -1.5421645805
     F     3.4928406296    0.1522667110    0.2510836010
     F     2.1337759258   -1.5021866688   -0.2151888975
     C     1.2097478969    0.5398258206    0.5948695448
     O     1.3147690168    1.7092734751    1.0307389251
     O    -0.0552951838   -0.0672126710    0.2039291991
     C    -1.1644355179    0.6408132677    0.0127196486
     O    -1.3017992888    1.8463926333   -0.1327804058
     C    -2.3782191512   -0.2987002208    0.0298738412
     F    -3.4177773616    0.2901613806   -0.5977549870
     F    -2.1170175377   -1.4543141165   -0.6350674740
     F    -2.7968815581   -0.6207914536    1.2604724434
