54
-6.9747368567557510e+02 frame 14   xyz file generated by TeraChem
     N     1.4345136654   -0.4420490010    0.2039611160
     C     2.8729185214   -0.4196632395    0.7061308023
     C     3.9384360461   -0.1695462276   -0.3549134121
     H     3.7493086419    0.7696189786   -0.8852128705
     H     3.9372490742   -0.9721934521   -1.0991129821
     C     5.3219214588   -0.0976693942    0.3066346738
     C     6.4354910009    0.1337495414   -0.7173460101
     H     7.4153211793    0.1830346658   -0.2301961188
     H     6.4638115726   -0.6775196650   -1.4542397894
     H     6.2796346004    1.0742414681   -1.2591510574
     H     5.3244432438    0.7118360526    1.0481838577
     H     5.5102476092   -1.0286595215    0.8571643871
     H     2.9084299516    0.3511623569    1.4765503985
     H     3.0386037908   -1.3844099955    1.1855555267
     C     1.2706400288   -1.5966339606   -0.7787656791
     C    -0.1612506337   -1.9090692245   -1.1974895411
     H    -0.6367755746   -1.0230885117   -1.6360425201
     C    -0.1837220982   -3.0349088655   -2.2389379064
     C    -1.6125166916   -3.3877851911   -2.6575511185
     H    -2.1946034505   -3.7419725979   -1.7984851612
     H    -1.6198810464   -4.1741482163   -3.4198053591
     H    -2.1256109357   -2.5102519090   -3.0700069367
     H     0.4009323656   -2.7314997576   -3.1169531140
     H     0.3109002243   -3.9218876680   -1.8213962989
     H    -0.7627996813   -2.2147637597   -0.3358754479
     H     1.7285283075   -2.4692304232   -0.3109933012
     H     1.8659773481   -1.3353679855   -1.6536214157
     C     1.0843955639    0.8567019923   -0.5158864880
     C     1.3821687638    2.1451276658    0.2416491687
     H     2.4564672383    2.2506716362    0.4255501394
     C     0.8945768066    3.3472697410   -0.5794772617
     C     1.1789391616    4.6761931379    0.1236684289
     H     0.8248728826    5.5224267948   -0.4749270143
     H     2.2541115061    4.8088609348    0.2933711770
     H     0.6782711946    4.7187253028    1.0982811399
     H     1.3815425121    3.3354663445   -1.5635250405
     H    -0.1834373168    3.2467534728   -0.7616906594
     H     0.8819757130    2.1548216076    1.2155414119
     H     0.0191922119    0.8001381756   -0.7378632654
     H     1.6234954511    0.8386631128   -1.4640625717
     C     0.5009767087   -0.6001219312    1.3993389982
     C     0.6211607066   -1.9145321089    2.1664077315
     H     0.5709091691   -2.7744968253    1.4909258757
     H     1.5854621167   -1.9620918838    2.6809340437
     C    -0.5105882393   -2.0381104395    3.2027711048
     C    -1.8918890681   -2.2809951788    2.5850408950
     H    -1.8875572262   -3.1900725178    1.9712967495
     H    -2.6498622195   -2.4057516810    3.3659352191
     H    -2.2119310841   -1.4506302200    1.9458510698
     H    -0.5321190771   -1.1374367453    3.8308241849
     H    -0.2624412130   -2.8724056328    3.8689508256
     H     0.7194498243    0.2353220989    2.0639171203
     H    -0.5055637867   -0.4612123250    1.0085607029
     I    -3.2826957190    0.2889972755   -1.0143183076
