54
-6.9924095196762232e+02 frame 19   xyz file generated by TeraChem
     N     1.4236553238   -0.4411268034    0.2088728087
     C     2.8630244343   -0.4199044879    0.7088260822
     C     3.9265368940   -0.1700295552   -0.3542143048
     H     3.7353571988    0.7676723737   -0.8863064878
     H     3.9253883462   -0.9742638583   -1.0967475266
     C     5.3106245708   -0.0949663523    0.3056288445
     C     6.4228526023    0.1355732845   -0.7199396117
     H     7.4029022347    0.1884014016   -0.2336582492
     H     6.4522627912   -0.6779316047   -1.4542888101
     H     6.2646361376    1.0740493213   -1.2645159673
     H     5.3128516409    0.7160232725    1.0455422835
     H     5.5006789256   -1.0245327500    0.8579687130
     H     2.8998449928    0.3505023570    1.4795774117
     H     3.0293859615   -1.3848147329    1.1874777485
     C     1.2601388567   -1.5925713293   -0.7763258460
     C    -0.1715379838   -1.9238696032   -1.1819756405
     H    -0.6671836807   -1.0312085759   -1.6001269163
     C    -0.1931042358   -3.0189749081   -2.2540024423
     C    -1.6187778892   -3.3915419993   -2.6624936347
     H    -2.1876983343   -3.7646372982   -1.8030312132
     H    -1.6181599200   -4.1689692423   -3.4337606138
     H    -2.1495371023   -2.5188453007   -3.0634059875
     H     0.3755207072   -2.6837878274   -3.1304617295
     H     0.3233636371   -3.9060557252   -1.8620953501
     H    -0.7592415203   -2.2539802379   -0.3210279083
     H     1.7270427001   -2.4647319694   -0.3160138731
     H     1.8449136790   -1.3247906170   -1.6560553352
     C     1.0732741136    0.8599956002   -0.5079030586
     C     1.3789554863    2.1470291863    0.2489454951
     H     2.4544544774    2.2493299469    0.4270289188
     C     0.8908545233    3.3507543396   -0.5696300858
     C     1.1829981627    4.6787454855    0.1319973626
     H     0.8298327465    5.5259950118   -0.4656625029
     H     2.2592957749    4.8073513432    0.2974681376
     H     0.6861829516    4.7235420066    1.1084422735
     H     1.3729626089    3.3374181090   -1.5560407763
     H    -0.1883262650    3.2538096150   -0.7467318767
     H     0.8840250000    2.1575717459    1.2255152791
     H     0.0067097580    0.8065186275   -0.7232063349
     H     1.6071204206    0.8417332196   -1.4589795983
     C     0.4903561032   -0.6021459186    1.4042883728
     C     0.6188589111   -1.9135761152    2.1746870472
     H     0.5664624452   -2.7757991822    1.5020129172
     H     1.5863308996   -1.9576193712    2.6833561474
     C    -0.5041372681   -2.0377309119    3.2203252346
     C    -1.8958817066   -2.2537874887    2.6161823535
     H    -1.9068979779   -3.1430970060    1.9742428013
     H    -2.6421804114   -2.3983542989    3.4047533571
     H    -2.2209244706   -1.4016413429    2.0091254252
     H    -0.5071129077   -1.1466146962    3.8621905696
     H    -0.2585559460   -2.8851273366    3.8706962531
     H     0.7026705668    0.2368276869    2.0664500329
     H    -0.5165704515   -0.4714734400    1.0114602660
    Br    -2.9364674133    0.1292642526   -1.3193103551
