54
-6.9946083081727807e+02 frame 37   xyz file generated by TeraChem
     N     1.4507369022   -0.3819493499    0.1350046238
     C     2.8747390461   -0.3695403742    0.6611006097
     C     3.9618863080   -0.1287631533   -0.3753815728
     H     3.8010720026    0.8247710384   -0.8897260173
     H     3.9485688659   -0.9172000082   -1.1350298815
     C     5.3334861472   -0.1061598829    0.3108272078
     C     6.4829016438    0.1270576635   -0.6692517504
     H     7.4455996103    0.1435825082   -0.1466337022
     H     6.5216460696   -0.6659764718   -1.4251750974
     H     6.3651169545    1.0841786888   -1.1909867069
     H     5.3365868439    0.6817425966    1.0760808862
     H     5.4865436426   -1.0546457734    0.8430275708
     H     2.9044029599    0.3987388325    1.4349329362
     H     3.0230930275   -1.3348484229    1.1470539341
     C     1.2825968039   -1.5486239297   -0.8335497544
     C    -0.1649810581   -1.9317173532   -1.1055290377
     H    -0.7481851895   -1.0744645068   -1.4565485229
     C    -0.2684718545   -3.0936584021   -2.0948266709
     C    -1.7100981581   -3.6052001625   -2.1691353647
     H    -2.0403651043   -3.9676280716   -1.1880196063
     H    -1.8089634803   -4.4283989830   -2.8847678039
     H    -2.3957147270   -2.8053581281   -2.4740297873
     H     0.0843313506   -2.7845196462   -3.0868185504
     H     0.3900606703   -3.9092850263   -1.7659111973
     H    -0.6334093621   -2.2681785974   -0.1816624012
     H     1.8141621492   -2.3897723521   -0.3855850839
     H     1.8048751915   -1.2749392286   -1.7507760585
     C     1.0945822283    0.9190548973   -0.5790304956
     C     1.4084337992    2.1928735080    0.1959571725
     H     2.4823399500    2.2802004316    0.3927385396
     C     0.9419829384    3.4316798584   -0.5789213030
     C     1.2302343165    4.7179905373    0.1998048209
     H     0.9072590437    5.6034399079   -0.3580239716
     H     2.3024036036    4.8206671082    0.4069917699
     H     0.7055440229    4.7174207707    1.1632908019
     H     1.4428990354    3.4632608048   -1.5550682790
     H    -0.1344980578    3.3506791001   -0.7762781252
     H     0.9036316858    2.1871153720    1.1683121009
     H     0.0203183999    0.8634633026   -0.7705888780
     H     1.6248970900    0.9080999693   -1.5323911270
     C     0.4954754353   -0.5449533661    1.3092821878
     C     0.6093597731   -1.8601232319    2.0808697890
     H     0.7670622334   -2.7142179657    1.4160386820
     H     1.4684547352   -1.8246261407    2.7582563476
     C    -0.6726106110   -2.1064954811    2.8897937474
     C    -1.9076349978   -2.5005162375    2.0737847809
     H    -1.7227070484   -3.4137128977    1.4957923278
     H    -2.7515179941   -2.6970622592    2.7450486048
     H    -2.2183332271   -1.7126299353    1.3800043114
     H    -0.8998689264   -1.2111150389    3.4854020386
     H    -0.4608426319   -2.9016548706    3.6156951652
     H     0.6855014721    0.2910491303    1.9821094135
     H    -0.5011411852   -0.4069644101    0.8936001234
    Br    -2.7134112390    1.0474399323   -0.2860036465
