54
-1.1464797753783414e+03 frame 38   xyz file generated by TeraChem
     N     1.4923512045   -0.3890093677    0.0469639345
     C     2.9139156389   -0.3798356551    0.5850949680
     C     4.0226602073   -0.1040863967   -0.4188136374
     H     3.8667516839    0.8607643463   -0.9134601015
     H     4.0435937462   -0.8735783310   -1.1975861089
     C     5.3707435143   -0.0828518551    0.3157521916
     C     6.5471302011    0.2229841251   -0.6110038172
     H     7.4906804534    0.2337236794   -0.0542755819
     H     6.6320136712   -0.5286471159   -1.4046921813
     H     6.4252315180    1.2028504815   -1.0876276351
     H     5.3285299435    0.6696962826    1.1147127834
     H     5.5274234876   -1.0508703709    0.8101074653
     H     2.9267272982    0.3719038714    1.3748275311
     H     3.0616595758   -1.3545046205    1.0522062921
     C     1.3326711874   -1.5323974238   -0.9426334979
     C    -0.1139809948   -1.8277566141   -1.3393768632
     H    -0.4463041910   -1.1351482598   -2.1194099905
     C    -0.2759926101   -3.2789111816   -1.8084176870
     C    -1.7500353509   -3.6409105753   -2.0031210115
     H    -2.3018576886   -3.5121243980   -1.0643452900
     H    -1.8656523205   -4.6814925446   -2.3249043222
     H    -2.2209689182   -2.9986906380   -2.7569109998
     H     0.2874124906   -3.4423748635   -2.7357483653
     H     0.1622861128   -3.9469304773   -1.0543374894
     H    -0.7886780839   -1.6791696196   -0.4964793885
     H     1.7847842335   -2.4012736242   -0.4639457726
     H     1.9400969313   -1.2827929313   -1.8125442667
     C     1.1359756600    0.9196584622   -0.6457894619
     C     1.3958339463    2.1726971993    0.1791347550
     H     2.4684970194    2.3021624423    0.3614809714
     C     0.8509280264    3.4231746847   -0.5211745632
     C     1.0910073048    4.6805487633    0.3190189357
     H     0.7037945503    5.5752114976   -0.1801959263
     H     2.1614205725    4.8326409177    0.5037759054
     H     0.5954025155    4.5984359246    1.2944225141
     H     1.3251394246    3.5317255280   -1.5049863036
     H    -0.2246070688    3.2946868540   -0.6979057942
     H     0.9120784541    2.0950833835    1.1590765907
     H     0.0736602959    0.8435547759   -0.8851207577
     H     1.7024955008    0.9451107606   -1.5784178548
     C     0.5433263820   -0.5782939978    1.2310816528
     C     0.5470411067   -1.9738726563    1.8565850140
     H     0.4674178794   -2.7623224520    1.1037682071
     H     1.4874295806   -2.1398117067    2.3919642627
     C    -0.6385739073   -2.1396111894    2.8171315091
     C    -1.9884834498   -2.3122428256    2.1132577130
     H    -1.9654124834   -3.1827990343    1.4462838155
     H    -2.7859813246   -2.4745091207    2.8477525408
     H    -2.2572629551   -1.4351970365    1.5156427541
     H    -0.6780527070   -1.2856722847    3.5074276992
     H    -0.4442781528   -3.0230722889    3.4377973193
     H     0.8458528577    0.1507654290    1.9833608229
     H    -0.4430579367   -0.2748591726    0.8759613983
    Cl    -2.6247529325    0.8978475203   -0.0062147777
