54
-1.1462540090964255e+03 frame 21   xyz file generated by TeraChem
     N     1.4243600974   -0.5187551437    0.1659930646
     C     2.8562602165   -0.4642313468    0.6877111672
     C     3.9344695000   -0.1975538880   -0.3565902325
     H     3.7378048973    0.7353518509   -0.8957188001
     H     3.9637100973   -1.0032373211   -1.0965948194
     C     5.3038793241   -0.0963608534    0.3304318283
     C     6.4313800226    0.1549857242   -0.6732000586
     H     7.4008037786    0.2223980498   -0.1677784396
     H     6.4887012164   -0.6559204605   -1.4088081945
     H     6.2685737830    1.0922793416   -1.2184423213
     H     5.2770658435    0.7141442058    1.0703415112
     H     5.4999282677   -1.0226718498    0.8860563001
     H     2.8648316909    0.3101991492    1.4557154358
     H     3.0347859706   -1.4226421898    1.1744846970
     C     1.2958038995   -1.6730724310   -0.8217427804
     C    -0.1123109946   -1.9454295333   -1.3388691894
     H    -0.4931606125   -1.0834671252   -1.8966760936
     C    -0.0941219055   -3.1701601553   -2.2642341173
     C    -1.4775885912   -3.4714987761   -2.8439876383
     H    -2.2034370341   -3.6677492867   -2.0458709918
     H    -1.4483622814   -4.3500663715   -3.4974705951
     H    -1.8488682958   -2.6247238511   -3.4335024910
     H     0.6207818027   -2.9984668352   -3.0795949144
     H     0.2724023669   -4.0403858843   -1.7040581185
     H    -0.8063013315   -2.1317589031   -0.5133236834
     H     1.7016742846   -2.5515486014   -0.3179426598
     H     1.9546433269   -1.4319784728   -1.6556672117
     C     1.0539849325    0.7671072839   -0.5545754425
     C     1.3126237888    2.0543840349    0.2220063460
     H     2.3900232969    2.2282187092    0.3474347052
     C     0.7538423364    3.2509044584   -0.5261148127
     C     0.9199002690    4.5907300813    0.1509262927
     H     0.4009679985    5.3815757089   -0.3976612843
     H     1.9894230141    4.8452642931    0.1794281036
     H     0.5520156286    4.5661766613    1.1816076535
     H     1.0238347609    3.2614081637   -1.5885494357
     H    -0.4307333686    3.0580351583   -0.5907380024
     H     0.8734905029    2.0263096608    1.2233328042
     H    -0.0073116524    0.6854924301   -0.7868867135
     H     1.6042973986    0.7731315249   -1.4963984121
     C     0.4778237757   -0.7022518609    1.3507628096
     C     0.5488821946   -2.0547836385    2.0536120814
     H     0.2888809961   -2.8657540760    1.3658219368
     H     1.5630269155   -2.2453048435    2.4170660110
     C    -0.4215850350   -2.0947498013    3.2477334965
     C    -1.9003347258   -2.0258029122    2.8520494922
     H    -2.1487591498   -2.8173673234    2.1342449990
     H    -2.5422015019   -2.1555490641    3.7301290039
     H    -2.1615548549   -1.0652192838    2.3945290789
     H    -0.1800782650   -1.2786271058    3.9414162391
     H    -0.2367187107   -3.0288201418    3.7907354254
     H     0.7234424986    0.0916384831    2.0563211416
     H    -0.5227049346   -0.5131321611    0.9643769060
    Cl    -2.1221563492    2.6789128192   -0.5881209772
