26
-7.0011558884301724e+02 frame 59   xyz file generated by TeraChem
     C    -5.3097665174    3.2873989553   -0.0206141205
     C    -6.6224370586    2.8068737210   -0.0160274772
     C    -4.2642129743    2.3654652491   -0.0180383055
     C    -4.4886136870    0.9898207504   -0.0095823568
     C    -5.8097634238    0.5316506737   -0.0049502100
     C    -6.8754358877    1.4336694125   -0.0083553530
     H    -5.1078059638    4.3514486221   -0.0251249950
     H    -7.4466278328    3.5148285857   -0.0180995900
     H    -5.9994656406   -0.5382142613    0.0016564159
     H    -7.8982363658    1.0683808110   -0.0045074658
     H    -3.6587506345    0.2943481521   -0.0062701885
     I    -2.2438942313    3.1078325132   -0.0196298884
     O    -3.2654848971    5.6828918975   -0.0314455020
     O    -1.4374644303    0.4305621509   -0.0255521470
     C    -2.1808551279    6.3569294879    0.0181247795
     C    -0.1630738927    0.5216384242   -0.0074566270
     O    -1.0166411292    5.9043010584    0.0379844763
     C    -2.3882203816    7.8823718293    0.0338361593
     O     0.5147289459    1.5696258597    0.0030765649
     C     0.5639162737   -0.8363952649    0.0060084225
     H     0.2746242934   -1.4025822382    0.8982655150
     H     1.6474967104   -0.6957182505    0.0004003792
     H     0.2668483938   -1.4276355346   -0.8669386180
     H    -3.0944239725    8.1595674035    0.8231049959
     H    -2.8218073820    8.2003484885   -0.9211509220
     H    -1.4387331862    8.4001415036    0.1882760582
