26
-6.9997308267843141e+02 frame 17   xyz file generated by TeraChem
     C    -4.5570300524    3.0712644383   -1.3849273755
     C    -5.8430585706    2.6714728450   -1.7564451926
     C    -3.9858952724    2.4756141954   -0.2653112598
     C    -4.6336622986    1.5042940085    0.4906637701
     C    -5.9150652076    1.1119079627    0.0955963613
     C    -6.5176191936    1.6942158409   -1.0214787245
     H    -4.0274975404    3.8282744314   -1.9513839821
     H    -6.3092638282    3.1236197241   -2.6264041077
     H    -6.4393820958    0.3541099376    0.6696296149
     H    -7.5147025749    1.3854803181   -1.3201000893
     H    -4.1612085578    1.0565286411    1.3570368225
     I    -2.0177384299    3.0745944611    0.3153951033
     O    -3.0202634818    5.0438615844    0.4512504091
     O    -1.6155740639    0.9232595559   -0.0292201915
     C    -2.1509617078    5.9389950287    0.8535319509
     C    -0.3574303152    0.6849907763    0.2518025861
     O    -0.9816341628    5.6635893199    1.1335383635
     C    -2.7017919455    7.3482723518    0.9429509181
     O     0.4262484716    1.5636924967    0.6219031681
     C     0.0618017617   -0.7620055669    0.0894335245
     H    -0.7669390311   -1.3898975125   -0.2396608264
     H     0.4442371114   -1.1270304855    1.0479705228
     H     0.8781982078   -0.8147503688   -0.6377438069
     H    -3.7512656803    7.3909793894    0.6495972453
     H    -2.1093968979    7.9996683578    0.2924974805
     H    -2.5893746438    7.7099080686    1.9699078152
