12
-8.2024981760008063e+02 frame 4   xyz file generated by TeraChem
     C    -6.0887096846    2.4437208063   -0.0274626505
     C    -6.0325730053    0.9059160109    0.0046497689
     C    -4.5602222766    0.5394084763    0.0096548006
     H    -6.5033970249    0.4405688673   -0.8657130865
     H    -6.4950490342    0.4810412426    0.9002022599
     C    -4.6469442509    2.9168141588   -0.0135842780
     H    -6.6035081464    2.8729506215    0.8365549129
     H    -6.5694613490    2.8340587030   -0.9290871687
     N    -3.8583655830    1.7551639283    0.0026125721
    Cl    -2.1525326880    1.8168732527    0.0132386759
     O    -4.2093188629    4.0453367362   -0.0173301605
     O    -4.0426580941   -0.5544529040    0.0202143539
