12
-8.2039372127236641e+02 frame 17   xyz file generated by TeraChem
     C    -6.1586914838    2.4385603458   -0.0249454782
     C    -6.1014617427    0.9064375183    0.0100998669
     C    -4.5991838532    0.5778555131   -0.0139990698
     H    -6.5832229096    0.4282221202   -0.8481962018
     H    -6.5384505133    0.4755010723    0.9165028057
     C    -4.6844762164    2.8768628474   -0.0326566334
     H    -6.6550362726    2.8804675300    0.8444254552
     H    -6.6467979204    2.8350877995   -0.9208957612
     N    -3.8992800212    1.7545247365   -0.0490651875
    Cl    -1.4669080932    1.8381590984    0.0880745115
     O    -4.2988018627    4.0406504921   -0.0313235471
     O    -4.1304291108   -0.5549291735   -0.0040707603
