23
-4.6333416913585370e+02 frame 9   xyz file generated by TeraChem
     C    -0.3375679809    0.8530964874    0.0000025593
     C    -1.6136750551    0.2916102316    0.0000539885
     C    -1.7702350407   -1.1343855953    0.0001554586
     C    -0.6453929585   -1.9551164083    0.0002036121
     C     0.6253646218   -1.4004150240    0.0001541148
     C     0.7969581824    0.0354756791    0.0000493974
     C     2.0960534358    0.6425274832   -0.0000109380
     C     3.2929301356   -0.0208779405    0.0000426954
     C     4.6099453796    0.6592820302   -0.0000215914
     H     5.1928213839    0.3412995728   -0.8763029276
     H     5.1928459911    0.3414194940    0.8762861260
     H     4.5183045303    1.7480824107   -0.0000968900
     H     3.3148950109   -1.1076980233    0.0001401869
     H     2.1148234547    1.7303827723   -0.0001053568
     H     1.4905644792   -2.0510205957    0.0001907219
     H    -0.7693671799   -3.0322030763    0.0002793395
     H    -2.7594139113   -1.5754163883    0.0001909482
     O    -2.6402113516    1.1387964203    0.0000031826
     C    -3.9952740999    0.6442350928    0.0000299849
     H    -4.6196416816    1.5360183373   -0.0000247416
     H    -4.1840440464    0.0516986427    0.8989031856
     H    -4.1840393384    0.0515900428   -0.8987732716
     H    -0.2394783609    1.9330098546   -0.0000764847
