26
-1.2953799041814214e+03 frame 93   xyz file generated by TeraChem
     C    -4.0220296135    3.2125424881   -1.8766470169
     C    -5.1359922125    2.9352433103   -2.6600936592
     C    -3.8447733406    2.5134716637   -0.6927982630
     C    -4.7318287397    1.5393312156   -0.2627621608
     C    -5.8296084731    1.2651825597   -1.0764094384
     C    -6.0394817129    1.9573998968   -2.2640326837
     H    -3.3164608799    3.9732141893   -2.1831746504
     H    -5.2881180912    3.4830263604   -3.5820003455
     H    -6.5324881704    0.5021833736   -0.7664093428
     H    -6.9037754695    1.7357790120   -2.8779697713
     H    -4.5756271735    0.9991868387    0.6608709943
     I    -2.1391346138    2.9877635939    0.4804706154
     O    -3.3135463205    4.8756665925    0.7293458277
     O    -1.5045366050    0.8665898886    0.2005544289
     C    -2.6116858418    5.6494246137    1.4869422536
     C    -0.4018583992    0.7403233502    0.8795795121
     O    -1.5350268086    5.4141890550    2.0127579864
     C    -3.2696047778    7.0453457443    1.6505465139
     O     0.1769696526    1.6091060003    1.5117362646
     C     0.1393838860   -0.7174274671    0.8787264853
     F    -0.0682701789   -1.3177226260   -0.3102289801
     F    -0.4754763170   -1.4427321633    1.8265859241
     F     1.4558404119   -0.7277019431    1.1230422817
     F    -4.6103649301    6.9796420850    1.5854358555
     F    -2.8428658893    7.8763156799    0.6860566338
     F    -2.9358993916    7.5695567878    2.8398845349
