26
-1.2955485878306706e+03 frame 66   xyz file generated by TeraChem
     C    -5.2988650943    3.2671482604   -0.2715615928
     C    -6.6153230851    2.8051987697   -0.2276224473
     C    -4.2716712061    2.3606322953   -0.0319444901
     C    -4.5141207427    1.0172119644    0.2328980521
     C    -5.8341142039    0.5666709706    0.2364539246
     C    -6.8841282526    1.4578844775    0.0162089550
     H    -5.0694880010    4.3050361431   -0.4676255628
     H    -7.4283664056    3.5035464377   -0.3969966855
     H    -6.0355766155   -0.4822157425    0.4285096527
     H    -7.9093437550    1.1034009219    0.0362440777
     H    -3.6919669271    0.3432219127    0.4200794065
     I    -2.2585286069    3.0574308228   -0.0712256715
     O    -3.3476587688    5.7291809872    0.2626476422
     O    -1.4651931895    0.2110349158   -0.3118347075
     C    -2.2411618447    6.3015093520    0.0805266724
     C    -0.2452475937    0.4401704224   -0.1056286135
     O    -1.1183940454    5.8543248078   -0.1926320369
     C    -2.3555017758    7.8631772625    0.1817335114
     O     0.3641206498    1.4921023579    0.1332155367
     C     0.6166197363   -0.8712570184   -0.1286588467
     F     0.3757302082   -1.5408751061   -1.2966559703
     F     0.3333530694   -1.7135057985    0.8721998063
     F     1.9419320142   -0.6261502680   -0.0973386490
     F    -3.0877078852    8.2123862367    1.2722906362
     F    -2.9609714152    8.4045885945   -0.8881792799
     F    -1.1546862636    8.4630461209    0.3149064798
