37
-1.1959499704955865e+03 frame 29   xyz file generated by TeraChem
     O     0.0957045695   -1.5616314890   -0.2538404344
     C    -1.0748937325   -0.8864745402   -0.0955185317
     C    -2.2233534973   -1.6670645189    0.0253029595
     C    -3.4937336096   -1.0931875598    0.1754052633
     C    -3.5405611128    0.3096293303    0.1656533811
     C    -2.4101639488    1.0946838916    0.0430245690
     C    -1.1227619022    0.5261237038   -0.0632500591
     C     0.1092150474    1.2763624666   -0.1602573672
     C     1.3278707413    0.5319563048   -0.2797129125
     C     2.6277004365    1.1025338407   -0.3026925413
     C     3.7501810002    0.3305043738   -0.4786862371
    Br     5.4990922040    1.2320118344   -0.5163618170
     C     3.7639022256   -1.1120636789   -0.6302756308
     O     4.7932879820   -1.8052217241   -0.8078359272
     C     2.4213703771   -1.6507086193   -0.5302526114
     C     1.2865491489   -0.8871101712   -0.3537939254
    Br     2.2366892335   -3.5914929981   -0.6583615631
     H     2.7328089557    2.1723028974   -0.1807009163
     C     0.1441011704    2.7463039790   -0.2684403571
     C     0.8321001084    3.3307772378   -1.3523160785
     C     0.8349602361    4.7032214539   -1.5671205317
     C     0.1439392543    5.5748106575   -0.7239270521
     C    -0.5287861901    5.0362192798    0.3579775890
     C    -0.5111482301    3.6497044732    0.5927448239
     C    -1.1134307636    3.1567456407    1.8197018102
     O    -1.0963296199    2.0074687621    2.2266884578
     O    -1.7290228439    4.1428840995    2.5179012110
     H    -2.0803999217    3.7187369983    3.3263904614
     H    -1.0622893211    5.6750321751    1.0507985448
     H     0.1311419935    6.6447918927   -0.9030551517
     H     1.3641297890    5.1013338437   -2.4273319756
     H     1.3475096537    2.6802722105   -2.0489436980
     H    -2.5226085848    2.1685883097    0.0453303137
    Br    -5.2821245884    1.1978811804    0.3719910793
     O    -4.5690943076   -1.9000997542    0.3234596393
     H    -5.3650852817   -1.3461863630    0.4266418512
    Br    -2.0613736708   -3.6058597204    0.0032209646
