35
-3.0154574686184001e+03 frame 16   xyz file generated by TeraChem
     O    -0.0628443949    2.5635402659   -0.9357766221
     C     1.0526593679    1.7762875685   -1.0115442632
     C     2.2033531110    2.3133424942   -1.5612029582
     C     3.4561238977    1.6012700300   -1.7180739644
     O     4.4998619763    2.1008052364   -2.2096217653
     O    -1.0338640282   -1.2801124473    3.3480694019
     C     0.0301224923   -1.5066518543    2.7301975817
     O     1.2107342393   -1.2238950777    3.0299139347
     C    -0.1290080283   -2.2731342203    1.3988446248
     C    -0.1466282011   -3.6736879435    1.2726992529
     C    -0.2538235528   -4.3826176487    0.0882184904
     C    -0.4005098072   -3.6803068488   -1.0901163994
     C    -0.3956464657   -2.3077527438   -0.9816075088
     C    -0.2321123758   -1.5672869646    0.1879090575
     C    -0.1986279919   -0.0999563952   -0.0242068143
     C     1.0151796346    0.4345527758   -0.5517042038
     C     2.2100341590   -0.3072643616   -0.6800154539
     C     3.3383030799    0.2428239158   -1.2364633545
     I     5.1115845886   -0.9585125106   -1.3897898721
     H     2.2169986284   -1.3273614016   -0.3207767946
     C    -1.3510996318    0.7245000457    0.0407315762
     C    -2.6403412692    0.3248789193    0.4714320998
     C    -3.7128732166    1.1855070805    0.4063214106
     C    -3.6569373311    2.5485745403   -0.0837727654
     O    -4.6381074113    3.3415172880   -0.1599576881
     I    -5.6508106853    0.5016638711    1.0368705186
     C    -2.3282859486    2.9157405341   -0.5020213558
     C    -1.2580648388    2.0583112907   -0.4469230920
     H    -2.1879779653    3.9147951959   -0.8996332414
     H    -2.7541394478   -0.6703311628    0.8791902043
    Cl    -0.6675193283   -1.3493902230   -2.4157169010
    Cl    -0.6679211663   -4.5248557057   -2.7183090325
    Cl    -0.0620806641   -6.1816550307    0.0564264572
    Cl    -0.0208038219   -4.6483351206    2.7213665807
     I     2.1971556222    4.3391879153   -2.2469006780
