82
-1.8754892133359135e+03 frame 16   xyz file generated by TeraChem
     N     0.7366217817    1.0094453708   -0.5888220527
     C    -0.5576672665    1.5015594829   -0.4353633937
     C    -0.7851619894    2.8771830875   -0.3338166160
     C    -2.0658794654    3.4073023870   -0.1736206419
     C    -3.1404431724    2.5055479162   -0.1078020949
     C    -2.9359278130    1.1412685352   -0.1949288277
     H    -3.7767529677    0.4630735820   -0.1183926139
     C    -1.6466632601    0.5862380634   -0.3670999648
     C    -1.4057437471   -0.8095607129   -0.4335404412
     C    -0.0779567579   -1.2792173728   -0.6209368173
     C     0.2318780027   -2.6488766065   -0.7330497130
     C     1.5351152762   -3.0966391631   -0.8631076369
     C     2.6050940450   -2.1964492792   -0.9012619094
     C     2.3122405812   -0.8289944548   -0.8301079844
     C     1.0095021023   -0.3595747512   -0.6873633115
     H     3.1204401705   -0.1136389406   -0.8369157966
     C     4.0650213419   -2.6395269970   -0.9600940851
     C     4.7812580405   -2.1650817711    0.3147470941
     H     4.2850005120   -2.5491665954    1.2059720488
     H     4.7765940862   -1.0783594690    0.4033939300
     H     5.8221946706   -2.5023802392    0.3110780630
     C     4.7451590129   -2.0237620357   -2.1953205096
     H     4.7223230771   -0.9334599763   -2.1691072579
     H     4.2490676012   -2.3459208696   -3.1148399722
     H     5.7934699542   -2.3318471349   -2.2466291647
     C     4.2054230938   -4.1619114836   -1.0489868293
     H     5.2634386380   -4.4300458171   -1.1002243731
     H     3.7847757627   -4.6556824502   -0.1708756836
     H     3.7173521542   -4.5669345332   -1.9390449279
     H     1.7119795096   -4.1624848893   -0.9142538662
     H    -0.5807369897   -3.3628431512   -0.6832057568
     C    -2.5110876337   -1.7775856204   -0.2276136041
     C    -2.7008032601   -2.3291739276    1.0503104231
     C    -3.7403060650   -3.2431422509    1.2310129047
     C    -4.5902564663   -3.6280413679    0.1984348140
     C    -4.3833147833   -3.0671415725   -1.0623962257
     C    -3.3565398408   -2.1504986091   -1.2884018377
     C    -3.1477954479   -1.5667100125   -2.6553983994
     H    -2.1161599329   -1.7038087131   -2.9874354437
     H    -3.8111318453   -2.0297905936   -3.3877308256
     H    -3.3351579540   -0.4898619329   -2.6593787621
     H    -5.0287654162   -3.3554784268   -1.8876042931
     C    -5.6895984346   -4.6263676059    0.4361853291
     H    -6.6617826473   -4.2376480770    0.1208078811
     H    -5.5196467176   -5.5507697176   -0.1235931673
     H    -5.7634323577   -4.8906600364    1.4927522141
     H    -3.8889404217   -3.6665562167    2.2206308617
     C    -1.8030455985   -1.9439831575    2.1884578511
     H    -1.7275658797   -0.8607346454    2.2956987871
     H    -2.1607720067   -2.3595799162    3.1316518579
     H    -0.7778070310   -2.2881836516    2.0374830721
     H    -4.1527086455    2.8708144745    0.0218989548
     C    -2.3127426961    4.9105592146   -0.0573182778
     C    -3.2283264093    5.3663742625   -1.2081600231
     H    -4.1935606573    4.8578744080   -1.1825870016
     H    -3.4159369490    6.4424663646   -1.1489699862
     H    -2.7674291699    5.1534833843   -2.1757750621
     C    -2.9935709667    5.2170971637    1.2858275616
     H    -2.3670078540    4.8908681985    2.1181938860
     H    -3.1710008447    6.2915825521    1.3889431130
     H    -3.9546705072    4.7094941654    1.3753191403
     C    -1.0173350864    5.7245999264   -0.1304971162
     H    -0.3292710268    5.4642569362    0.6757416486
     H    -0.4983951983    5.5733307723   -1.0799018789
     H    -1.2448246115    6.7894851019   -0.0427817538
     H     0.0679597091    3.5345606604   -0.3670671595
     C     1.8314970605    1.9367194849   -0.5191621605
     C     2.3151610929    2.6810009383   -1.5882793440
     C     3.3894734307    3.5453673077   -1.3712726427
     C     3.9927863564    3.6650591288   -0.1215360353
     C     3.5114611689    2.9065864148    0.9375263658
     C     2.4324922469    2.0573814736    0.7269724941
     H     2.0482127102    1.4305098392    1.5116527812
     H     3.9708379798    2.9611686308    1.9169594645
     H     4.8334026565    4.3360115175    0.0164466760
     H     3.7679004234    4.1288581272   -2.2037854737
     H     1.8524513481    2.5848107225   -2.5640091659
     B     1.7187429752   -1.0194173239    2.8952602731
     F     0.7354444404   -0.0978153323    2.4513194484
     F     1.6004865926   -2.2224207495    2.1711524055
     F     2.9974735307   -0.4539165216    2.6664957995
     F     1.5455602554   -1.2633450232    4.2680510381
