38
-1.1829251421632812e+03 frame 15   xyz file generated by TeraChem
     S    -0.0001166860    1.3851688345   -0.0010636197
     C    -1.3722017472    0.2978338150   -0.0057613283
     C    -2.6362537278    0.8528928144   -0.0098728096
     C    -3.7934382589    0.0267386891   -0.0137888379
     C    -3.6089185938   -1.4001141228   -0.0131479327
     C    -2.3564238626   -1.9386725239   -0.0091762291
     H    -2.2139331358   -3.0142644957   -0.0087860125
     C    -1.1776220443   -1.1289895895   -0.0053156104
     N    -0.0000898953   -1.7598565645   -0.0015487399
     C     1.1774314191   -1.1289677416    0.0026786895
     C     2.3563387121   -1.9384936661    0.0066677931
     C     3.6088127954   -1.3998772752    0.0113248868
     C     3.7933624812    0.0269754302    0.0124402619
     C     2.6360245317    0.8529221044    0.0083702260
     C     1.3719780750    0.2978488686    0.0037021714
     H     2.7366913084    1.9305850391    0.0086457067
     N     5.0310383684    0.5619623728    0.0171488286
     C     5.2087714612    2.0148313750    0.0176291099
     H     4.7592689214    2.4616859520   -0.8756766847
     H     4.7498795841    2.4620474902    0.9059211078
     H     6.2735336235    2.2399176440    0.0233466643
     C     6.2186245304   -0.2954235355    0.0186782569
     H     7.1049319896    0.3362343557    0.0216408497
     H     6.2411965613   -0.9326450070    0.9089303969
     H     6.2452953013   -0.9302413583   -0.8731884017
     H     4.4682224210   -2.0565496591    0.0143126989
     H     2.2139427379   -3.0140952052    0.0059027893
     H    -4.4683205325   -2.0568017840   -0.0159901238
     N    -5.0311494786    0.5616179032   -0.0179417934
     C    -6.2186386722   -0.2959053050   -0.0191925568
     H    -6.2448204431   -0.9309890781    0.8724969341
     H    -6.2415338825   -0.9328720651   -0.9096213640
     H    -7.1050303066    0.3356364066   -0.0215611542
     C    -5.2090219378    2.0144722957   -0.0182416193
     H    -4.7593534018    2.4612937255    0.8749980627
     H    -4.7503733698    2.4618050786   -0.9065996002
     H    -6.2738041247    2.2394659098   -0.0236933374
     H    -2.7370243218    1.9305497721   -0.0097508791
