38
-1.1830584454598893e+03 frame 43   xyz file generated by TeraChem
     S     0.0120684145    1.3347955834   -0.1652301158
     C    -1.3718333306    0.2279600709   -0.1245228733
     C    -2.6361501402    0.8059074709   -0.1487629382
     C    -3.8067549682    0.0125185435   -0.1090315259
     C    -3.6376881621   -1.3992000148   -0.0526034106
     C    -2.3774920968   -1.9571144087   -0.0298535004
     H    -2.2611901023   -3.0363187693    0.0140565707
     C    -1.1858786470   -1.1839620781   -0.0640309144
     N    -0.0009793023   -1.8546932579   -0.0399332587
     C     1.1891260210   -1.1945939502   -0.0890981868
     C     2.3741915309   -1.9784429105   -0.0800251094
     C     3.6384808235   -1.4321007124   -0.1340215127
     C     3.8189254754   -0.0221645782   -0.1999792953
     C     2.6549554866    0.7818189984   -0.2127563593
     C     1.3864291156    0.2154693259   -0.1562894178
     H     2.7398255771    1.8607257345   -0.2678422307
     N     5.0721336406    0.5358325253   -0.2466814787
     C     5.2237861082    1.9788870737   -0.3509519113
     H     4.7797283498    2.3695569708   -1.2771402636
     H     4.7489705890    2.4906817504    0.4956341622
     H     6.2853743177    2.2257318991   -0.3471232663
     C     6.2505694217   -0.3169333913   -0.2931145381
     H     7.1407905414    0.3113946220   -0.3161046981
     H     6.3118622043   -0.9642438105    0.5908460947
     H     6.2563288782   -0.9575064868   -1.1855271462
     H     4.4965633677   -2.0924262464   -0.1260117365
     H     2.2491937160   -3.0564402854   -0.0307608116
     H    -4.5012800709   -2.0517895184   -0.0256558824
     N    -5.0556013983    0.5822639082   -0.1205142886
     C    -6.2425267613   -0.2595513612   -0.1475954011
     H    -6.2892620855   -0.9138689404    0.7319861874
     H    -6.2749649362   -0.8923130693   -1.0450958007
     H    -7.1272413524    0.3769337024   -0.1441804309
     C    -5.1962614507    2.0266073911   -0.2228428950
     H    -4.6940416433    2.5343709509    0.6101691487
     H    -4.7735546711    2.4123488448   -1.1610399492
     H    -6.2549708762    2.2834458271   -0.1904051587
     H    -2.7126415836    1.8856625962   -0.1994058574
