24
-5.7291501208867487e+02 frame 27   xyz file generated by TeraChem
     C     2.3425247336   -5.2305584656   -0.4860366200
     C     1.7587404580   -6.4516727171   -0.1225062668
     C     0.3798615086   -6.5795412275    0.0103112661
     C    -0.4826300974   -5.4736091990   -0.2280414187
     C     0.1264435665   -4.2498246718   -0.6112890250
     C     1.5062041919   -4.1294813276   -0.7251901746
     H     1.9393716682   -3.1685635562   -0.9948930067
     H     3.4213816562   -5.1369092983   -0.5737626527
     H     2.3929952917   -7.3168176149    0.0631691648
     H    -0.0648654531   -7.5225282697    0.3060289857
     H    -0.5218790186   -3.3931212106   -0.7812481107
     N    -1.8574035105   -5.4799414223   -0.0961689186
     N    -2.3255395193   -6.6105628278    0.4641010868
     C    -3.6296236983   -6.5364121421    0.8987548449
     C    -4.3886591357   -5.3416663880    1.0462854012
     C    -4.2464638141   -7.7477140150    1.3163623418
     C    -5.5371443651   -7.7681177999    1.8283580424
     C    -6.2716670611   -6.5797698225    1.9655062960
     C    -5.6775895624   -5.3735918983    1.5700948036
     H    -6.2276112650   -4.4412599867    1.6862559649
     H    -3.9274503712   -4.4027739630    0.7606682226
     H    -3.6736835693   -8.6670071447    1.2159274820
     H    -5.9789625719   -8.7162214889    2.1282260396
     H    -7.2776601616   -6.5945035426    2.3756263516
