24
-5.7281387944319738e+02 frame 121   xyz file generated by TeraChem
     C     2.3173982380   -5.2614118680   -0.4502193844
     C     1.7292586930   -6.4897454203   -0.1172852375
     C     0.3485929453   -6.6016184199   -0.0116477154
     C    -0.4615646290   -5.4762819480   -0.2498287957
     C     0.1270762307   -4.2507875050   -0.5899700603
     C     1.5146866602   -4.1429980437   -0.6833507654
     H     1.9680392631   -3.1876723471   -0.9299166699
     H     3.3982674701   -5.1802427906   -0.5190805233
     H     2.3555376849   -7.3576062036    0.0691827786
     H    -0.1183729263   -7.5396688803    0.2645733396
     H    -0.5172898074   -3.3916439965   -0.7494130385
     N    -1.8724189232   -5.4545403083   -0.0979971285
     N    -2.3491774380   -6.5344342003    0.3587530835
     C    -3.6739395144   -6.4811612270    0.8494997862
     C    -4.4363452891   -5.3072227184    0.9919959249
     C    -4.1960149655   -7.7086407622    1.2882927922
     C    -5.4680988659   -7.7706089913    1.8533595705
     C    -6.2224488422   -6.6035544810    1.9955978108
     C    -5.7020269697   -5.3753577595    1.5644637969
     H    -6.2876214683   -4.4687912147    1.6881416326
     H    -4.0153388257   -4.3601615953    0.6739006302
     H    -3.5836555337   -8.5987688761    1.1810874616
     H    -5.8658249959   -8.7233263610    2.1903870390
     H    -7.2100282913   -6.6459240819    2.4460137722
