24
-5.7669315728783442e+02 frame 12   xyz file generated by TeraChem
     C    -1.4364035627    0.9980748009   -0.5425117896
     C    -2.6879247797    1.6137936078   -0.5732507292
     C    -3.8163316027    0.9385531814   -0.1053579820
     C    -3.6936416793   -0.3641548351    0.3889909358
     C    -2.4465776200   -0.9794672248    0.4208029809
     C    -1.3003086080   -0.3002945233   -0.0255474459
     C    -0.0001953030   -1.0361229176    0.0209952639
     O    -0.0000251425   -2.2688113788    0.0310880428
     C     1.3008772887   -0.3005087220    0.0512831875
     C     2.4368265753   -0.9746001094   -0.4282774929
     C     3.6835830571   -0.3576640060   -0.4200470572
     C     3.8157428910    0.9419210657    0.0799754400
     C     2.6988219901    1.6109383511    0.5841440729
     C     1.4470817779    0.9946048311    0.5736125182
     H     0.5931535209    1.5140901948    0.9926261970
     H     2.8008652682    2.6132402955    0.9892298802
     H     4.7870279560    1.4282412314    0.0788826609
     H     4.5511098192   -0.8840136650   -0.8073844027
     H     2.3198391103   -1.9814404751   -0.8145976469
     H    -2.3369770831   -1.9880237059    0.8047158217
     H    -4.5693265814   -0.8947893998    0.7511481622
     H    -4.7886224404    1.4222307656   -0.1290462529
     H    -2.7825478936    2.6162605827   -0.9799375612
     H    -0.5755181617    1.5196066126   -0.9442060397
