14
-4.3688762636592043e+02 frame 10   xyz file generated by TeraChem
     C    -3.9055224116    2.1915331866    0.1502860179
     C    -5.1692044873    1.6319762054    0.0066007803
     C    -2.7671728318    1.3529648987    0.2270966975
     C    -2.9389512286   -0.0510980100    0.1630031690
     C    -4.2124792929   -0.5872306339    0.0181539037
     C    -5.3420264612    0.2412098716   -0.0639340961
     H    -4.3290067393   -1.6674585431   -0.0330704921
     H    -6.3331874081   -0.1869173843   -0.1817858078
     H    -3.7653825764    3.2636916118    0.2046241520
     H    -6.0346820322    2.2880219858   -0.0537704806
     H    -2.0642896859   -0.6857325768    0.2277829276
     N    -1.4923774321    1.9030706497    0.3554178088
     O    -1.3559781944    3.1929129633    0.4148122318
     O    -0.4612192181    1.1169059753    0.4215431881
