14
-4.3678461012828041e+02 frame 8   xyz file generated by TeraChem
     C    -3.9020167906    2.1949553663    0.1530800610
     C    -5.1697026729    1.6373359625    0.0076793135
     C    -2.8039872379    1.3370999488    0.2255731849
     C    -2.9343765686   -0.0509031978    0.1654130878
     C    -4.2090876177   -0.5915506640    0.0189936428
     C    -5.3233492101    0.2492261057   -0.0629567955
     H    -4.3311832201   -1.6685130211   -0.0340010493
     H    -6.3138640083   -0.1785695931   -0.1839190590
     H    -3.7578051391    3.2663831238    0.2081681367
     H    -6.0366834011    2.2869892526   -0.0542438557
     H    -2.0576552798   -0.6823085820    0.2309359701
     N    -1.4669030719    1.9139890512    0.3576235385
     O    -1.3628671704    3.1422036754    0.4083382252
     O    -0.5019986114    1.1475127716    0.4160755990
