20
-6.7881488996106964e+02 frame 61   xyz file generated by TeraChem
     C    -3.9529445749    1.9959501126    0.0223918102
     C    -5.1511747405    1.3805548927   -0.2469294854
     C    -2.7735969141    1.2390893172    0.2754765773
     C    -2.8747832072   -0.1790082791    0.1928621204
     C    -4.0743626192   -0.7946317396   -0.0687897620
     C    -5.2625701451   -0.0387991806   -0.2790293340
     H    -4.1223396404   -1.8786611750   -0.1007263405
     H    -3.9029176738    3.0801537269    0.0459599544
     H    -6.0319190182    1.9863381990   -0.4362296940
     H    -1.9910499787   -0.7849116811    0.3669195483
     C    -1.5357750790    1.8755674459    0.6066558321
     C    -6.5229509842   -0.6801288951   -0.4924817147
     C    -1.4502579177    3.2678698577    0.8254367620
     C    -0.3401585530    1.1374065495    0.7433246703
     C    -6.6449047129   -2.0864272158   -0.5222362847
     C    -7.7146190418    0.0620813372   -0.6410100442
     N    -1.3918925348    4.4223218017    1.0064411434
     N     0.6450235766    0.5154022666    0.8497766723
     N    -6.7352578115   -3.2526545006   -0.5456672621
     N    -8.6954886296    0.6876670599   -0.7646851692
