20
-6.7864748456186180e+02 frame 117   xyz file generated by TeraChem
     C    -3.9687400227    2.0142429316   -0.0068533815
     C    -5.1481170371    1.4072448840   -0.2783105517
     C    -2.7779332502    1.2363560052    0.2556342226
     C    -2.8610888624   -0.2031082635    0.1417904791
     C    -4.0446600774   -0.8105827380   -0.1085070506
     C    -5.2503339879   -0.0354526969   -0.2960961490
     H    -4.1014443228   -1.8924493579   -0.1533611953
     H    -3.9076578856    3.0966105137    0.0140342133
     H    -6.0328619091    2.0017931056   -0.4789111219
     H    -1.9679260714   -0.7972857068    0.2989381013
     C    -1.5873773821    1.8509692086    0.6142418999
     C    -6.4791055802   -0.6571313047   -0.4649547068
     C    -1.4947968221    3.2533823410    0.8553231889
     C    -0.3787530346    1.1131476910    0.7751180607
     C    -6.6185115043   -2.0760141361   -0.4669814375
     C    -7.6868888413    0.0855190513   -0.6127381555
     N    -1.4156650536    4.3977129348    1.0538799422
     N     0.6139348232    0.5161077276    0.8932184940
     N    -6.7400993654   -3.2337811981   -0.4647869870
     N    -8.6759140131    0.6878989078   -0.7332178650
