20
-6.7892765968661308e+02 frame 1000   xyz file generated by TeraChem
     C    -3.8676581290    1.9826986594   -0.3674672943
     C    -5.0439481128    1.2990358601   -0.6870392880
     C    -2.7762831761    1.3280660497    0.2354461418
     C    -2.9140060762   -0.0653883999    0.4045782506
     C    -4.1060323078   -0.7386677436    0.1595193898
     C    -5.2280032657   -0.0615283877   -0.3639904157
     H    -4.1869023372   -1.7879423744    0.4344805838
     H    -3.7799197170    3.0256291252   -0.6651946537
     H    -5.8490547961    1.8260091038   -1.1943272642
     H    -2.0878695469   -0.6102910140    0.8546730573
     C    -1.5044276567    1.9673632571    0.7346857570
     C    -6.5283452686   -0.7182093006   -0.5330408059
     C    -1.4212248206    2.9456744389    1.7650773052
     C    -0.3759739968    1.4279910361    0.0760792204
     C    -6.7334202947   -2.0702565807   -0.2344888188
     C    -7.6872421403    0.0144345412   -0.8164874592
     N    -1.3444171077    3.7895048611    2.5870762891
     N     0.4761271506    0.9518948064   -0.5877217068
     N    -6.9096150947   -3.1830865238    0.1044150736
     N    -8.6557234058    0.6322483858   -1.0688134618
