14
-1.8236272641980827e+03 frame 5   xyz file generated by TeraChem
     C    -4.3110256572    3.3886226676   -0.7414944721
     C    -4.3749543106    2.0443911763   -0.7483632976
     S    -2.8938991410    1.1768425774   -0.4583577689
     S    -2.7544240255    4.1091357928   -0.4459670748
     C    -1.9000792313    2.5980336098   -0.2745360680
     C    -0.5321068708    2.5316567996   -0.0153589202
     S     0.4630173259    3.9532843464    0.1574333247
     S     0.3187230429    1.0212054696    0.1771863730
     C     1.9373785971    3.0870967415    0.4831831616
     C     1.8709135156    1.7429825866    0.4935068253
     H     2.8294647605    3.6738533130    0.6678509149
     H     2.7011907342    1.0738899394    0.6862607067
     H    -5.1451699654    4.0585275709   -0.9136699451
     H    -5.2689288746    1.4583574091   -0.9259639594
