14
-1.8236272641984781e+03 frame 5   xyz file generated by TeraChem
     C    -4.3110280694    3.3886185178   -0.7414994958
     C    -4.3749543171    2.0443892141   -0.7483508229
     S    -2.8938923315    1.1768441029   -0.4583482676
     S    -2.7544233997    4.1091417509   -0.4459879588
     C    -1.9000803085    2.5980412678   -0.2745446306
     C    -0.5321068813    2.5316694946   -0.0153695263
     S     0.4630271211    3.9532897087    0.1574142206
     S     0.3187119850    1.0212154833    0.1771870217
     C     1.9373846490    3.0870913979    0.4831777967
     C     1.8709110371    1.7429809131    0.4935146716
     H     2.8294677800    3.6738522031    0.6678441232
     H     2.7011747219    1.0738750183    0.6862787889
     H    -5.1451683790    4.0585283539   -0.9136728413
     H    -5.2689235077    1.4583424735   -0.9259331795
