14
-1.8237891829179571e+03 frame 10   xyz file generated by TeraChem
     C    -4.2733811926    3.3745752058   -0.9628301020
     C    -4.3279001624    2.0398128798   -0.9935904900
     S    -2.8411747833    1.1420364208   -0.6795855768
     S    -2.7192589236    4.1332110392   -0.6110436627
     C    -1.8468390238    2.5931554109   -0.3748519957
     C    -0.5480313552    2.5316443290   -0.0181567624
     S     0.4556847549    3.9827711238    0.2530119036
     S     0.3244989113    0.9925197156    0.2219328729
     C     1.8644684780    3.0856613459    0.8231447651
     C     1.8045468520    1.7507839337    0.8143538455
     H     2.7143849250    3.6674719031    1.1600738293
     H     2.6005184591    1.0899430468    1.1368685292
     H    -5.1085941099    4.0359159788   -1.1613673501
     H    -5.2136928294    1.4585976668   -1.2213798060
