13
-6.4399433936221146e+02 frame 62   xyz file generated by TeraChem
    Cr    -0.0009420707    0.0018202633    0.0023658186
     N     3.2548513795    0.0109529006   -0.0105999258
     C     2.0759772210    0.0037698533    0.0000972941
     N    -3.2568073500   -0.0039524108   -0.0018309271
     C    -2.0778683107    0.0019499997   -0.0027984130
     N     0.0073022102    3.2572289108    0.0490023211
     C     0.0000838078    2.0786383202    0.0213011404
     N     0.0004006727   -0.0318534654   -3.4832884891
     C    -0.0039674272   -0.0114903829   -2.3009231308
     N     0.0009989162    0.0333457494    3.4819365678
     C     0.0041927111    0.0137656416    2.2996469317
     N    -0.0050147807   -3.2538494311   -0.0342744217
     C     0.0004580207   -2.0751148488   -0.0129738660
