13
-6.6160505196901318e+02 frame 61   xyz file generated by TeraChem
    Mn     0.0005497522    0.0039891839   -0.0065806890
     N     3.1862466644    0.0607728855    0.0929004715
     C     2.0092767819    0.0455528668    0.0344112573
     N    -3.1856594201   -0.0682214151    0.0374471786
     C    -2.0081755147   -0.0452413802   -0.0055536376
     N     0.0584705389    3.1844886869   -0.2014016895
     C     0.0433649836    2.0110035388   -0.0908413153
     N    -0.0271893743    0.1280196390   -3.3302505266
     C    -0.0233478926    0.0700915487   -2.1486159222
     N     0.0325853433   -0.1180412292    3.3616179154
     C     0.0277678713   -0.0618010673    2.1780470846
     N    -0.0670500328   -3.1817170134    0.0591550042
     C    -0.0471747011   -2.0036853445    0.0273258688
