13
-6.8112308337616491e+02 frame 216   xyz file generated by TeraChem
    Fe    -0.0000223950    0.0016604501   -0.0027266832
     N     3.1282184766    0.0730412672   -0.0002530914
     C     1.9502831509    0.0490237886   -0.0022546060
     N    -3.1282780850   -0.0696770330   -0.0026944325
     C    -1.9503399179   -0.0457250968   -0.0019301818
     N    -0.0737077174    3.0030442162   -0.9074135386
     C    -0.0488811843    1.9175164440   -0.4465624852
     N     0.0059792223   -0.2145575513   -3.2429197391
     C     0.0053432455   -0.2100908015   -2.0570851752
     N    -0.0061099107    0.2196200080    3.2394451103
     C    -0.0054222161    0.2146503574    2.0535987138
     N     0.0737234586   -2.9990291289    0.9050601042
     C     0.0488827101   -1.9142666001    0.4423853656
