51
-8.6656434331908667e+02 frame 29   xyz file generated by TeraChem
    Cr    -0.0204888654    0.1971509125   -0.2308404641
     C    -0.2654137931   -1.5550937229    1.1812771549
     C     1.1351575988   -1.2515320565    1.0400652331
     C    -0.9105901219   -0.4091910992    1.7553546145
     C     0.0845679053    0.6009259661    1.9657316386
     C     1.3503772039    0.0849746561    1.5281832009
     C    -2.3491600454   -0.2957427603    2.1615453657
     C    -0.9452078527   -2.8528016260    0.8785946508
     C     2.1824343296   -2.2109270530    0.5732688962
     C    -0.1400017539    1.9272819234    2.6339953884
     C     2.6763322266    0.7725779231    1.6578666605
     C     0.2711610636    1.8273861008   -1.5812279181
     C     0.8208529745    0.6317451353   -2.1466074588
     C    -1.1336047715    1.6272517968   -1.4140386907
     C    -1.4563470933    0.3150226735   -1.8761771372
     C    -0.2499548650   -0.3035239953   -2.3290038453
     C    -0.1146622434   -1.7102203001   -2.8233344987
     C    -2.8093016733   -0.3307802185   -1.8017811932
     C    -2.1086877647    2.5864435150   -0.7882317187
     C     2.2749049335    0.3922145100   -2.4188387606
     C     1.0126116923    3.0589575437   -1.1411847026
     H     1.7749777229   -2.9413252643   -0.1289043009
     H     2.5788478503   -2.7646223645    1.4369396760
     H     3.0220754710   -1.6951013195    0.1008343084
     H    -2.0065288612   -2.7064892269    0.6638132798
     H    -0.8781610025   -3.5136706988    1.7557089810
     H    -0.4839223950   -3.3753704040    0.0380048429
     H    -3.0046786310   -0.9047917371    1.5358147972
     H    -2.7003041574    0.7393032655    2.1278838480
     H    -2.4673475404   -0.6426028401    3.1991807827
     H    -1.1387072463    2.3254481191    2.4351991739
     H     0.5953984757    2.6710251405    2.3173252462
     H    -0.0461058095    1.8157083654    3.7245093540
     H     2.5718834508    1.8600690632    1.6100330578
     H     3.3808458171    0.4561790866    0.8853828245
     H     3.1245129268    0.5309074497    2.6329788168
     H     2.0511156778    2.8306687570   -0.8847957163
     H     0.5423594402    3.4999798425   -0.2558785877
     H     1.0174320798    3.8199654668   -1.9287554010
     H    -1.6151558033    3.2503678147   -0.0705963845
     H    -2.8964372495    2.0506936871   -0.2492792021
     H    -2.5895960309    3.2142065433   -1.5460748037
     H    -2.7236437068   -1.4120357054   -1.6618349813
     H    -3.3835203715   -0.1487158110   -2.7159164226
     H    -3.3900575714    0.0631012330   -0.9605723020
     H    -0.1941248862   -1.7509839110   -3.9142643658
     H    -0.8974495126   -2.3479467857   -2.4019456854
     H     0.8512032245   -2.1387888085   -2.5367397708
     H     2.8997928933    0.9681071420   -1.7282947107
     H     2.5368069341    0.6891610698   -3.4394986448
     H     2.5281397266   -0.6646069932   -2.2958841255
