51
-8.6665292802034378e+02 frame 16   xyz file generated by TeraChem
    Cr    -0.0404239798    0.1359078827   -0.1353343262
     C    -1.9645835848   -0.7123227992    0.0262143510
     C    -1.7978248802   -0.1070939321   -1.3149057997
     C    -1.0164364371   -1.8167698680    0.2201754229
     C    -0.2675706001   -1.8762939081   -0.9447458350
     C    -0.7312841556   -0.8188521331   -1.9192679830
     C    -0.8177751107   -2.6990871644    1.4109844979
     C    -3.0123648914   -0.3230312272    1.0203672778
     C    -2.6686094120    0.9373902431   -1.9465297063
     C     0.8514504411   -2.8406908493   -1.2049181552
     C    -0.2685473659   -0.5615672613   -3.3215166958
     C     1.7490232931    1.2136205387   -0.5709740650
     C     0.6624677091    2.1398351145   -0.2644239925
     C     1.8962103298    0.4414378465    0.6232785582
     C     0.9357320826    0.9186108041    1.6614706600
     C     0.1925063741    1.9508086963    1.1305286058
     C    -0.9042698523    2.7153373838    1.8043062495
     C     0.7475970789    0.4019249616    3.0589444282
     C     2.9380572420   -0.6115167726    0.8458817491
     C     0.1943988712    3.1792951778   -1.2376677368
     C     2.6188803498    1.1526217955   -1.7827265979
     H    -3.0804395031    1.6244242687   -1.1999991109
     H    -3.5194816272    0.4882421345   -2.4791658224
     H    -2.1139633885    1.5393299151   -2.6732968232
     H    -2.7171279373   -0.5868877626    2.0405834150
     H    -3.9690818789   -0.8248397327    0.8166814336
     H    -3.2047820617    0.7547729550    1.0017705414
     H    -1.0808110591   -2.1861853056    2.3409821591
     H     0.2226275982   -3.0285596720    1.4973310530
     H    -1.4414814348   -3.6009855345    1.3477002969
     H     1.3681915169   -3.1258120814   -0.2829291123
     H     1.5972927598   -2.4121619586   -1.8816368311
     H     0.4831123838   -3.7653004105   -1.6706478017
     H     0.7766922714   -0.8530713857   -3.4640311021
     H    -0.3516645638    0.4990347365   -3.5781829670
     H    -0.8671622807   -1.1220313259   -4.0534628962
     H     2.0815934430    1.4621163848   -2.6848181510
     H     2.9912837397    0.1379432222   -1.9545728904
     H     3.4959359350    1.8088598163   -1.6852892564
     H     3.1910299725   -1.1295922432   -0.0844391520
     H     2.6037300686   -1.3698560328    1.5615860072
     H     3.8696070923   -0.1803164547    1.2395985475
     H    -0.2914962812    0.4965158806    3.3900085884
     H     1.3703003352    0.9532382101    3.7771952067
     H     1.0221029355   -0.6547716178    3.1382464687
     H    -0.5154215666    3.6185763834    2.2938208034
     H    -1.4041531701    2.1180321106    2.5726901681
     H    -1.6647322231    3.0372341453    1.0862339899
     H     0.2460447896    2.8149125636   -2.2689684994
     H     0.8121777892    4.0871317381   -1.1847030324
     H    -0.8405971559    3.4795625242   -1.0478061374
