51
-9.0381748291550093e+02 frame 29   xyz file generated by TeraChem
    Fe    -0.0265399937    0.1304397744   -0.1628774180
     C    -0.2601374372    1.3555592467    1.4709541612
     C    -1.2937579543    0.3622890405    1.4291581345
     C     1.0036008256    0.6788900596    1.5180622782
     C     0.7532488861   -0.7356337818    1.5097930376
     C    -0.6697948637   -0.9313386983    1.4589147501
     C     2.3437040109    1.3433706088    1.6174965986
     C    -0.4619253581    2.8402579534    1.5154961951
     C    -2.7660240364    0.6456035780    1.4175933418
     C     1.7971098701   -1.8087004819    1.5529476170
     C    -1.3816895208   -2.2495473909    1.4704380855
     C    -0.1863953212   -1.0861224641   -1.8048952151
     C    -1.1795428578   -0.0524204407   -1.8375073243
     C     1.1051737846   -0.4615960054   -1.7609422900
     C     0.9134697919    0.9623941922   -1.7607370255
     C    -0.5018156187    1.2141495942   -1.8118061752
     C    -1.1643572163    2.5583006416   -1.8425328730
     C     1.9971588063    1.9957208982   -1.7402623557
     C     2.4227384181   -1.1755228385   -1.7827978033
     C    -2.6606390557   -0.2692403946   -1.9085255704
     C    -0.4501562786   -2.5615826094   -1.8508716043
     H    -3.0089870373    1.4792792477    0.7511263955
     H    -3.1241021522    0.9140948006    2.4212082568
     H    -3.3396971148   -0.2240947248    1.0855511771
     H     0.3206037331    3.3682447440    0.9602489530
     H    -0.4429501790    3.2166550580    2.5476629696
     H    -1.4241505719    3.1250782146    1.0801605732
     H     2.3462535743    2.3125509708    1.1104249377
     H     3.1311029993    0.7317747014    1.1652781962
     H     2.6245264736    1.5197482222    2.6652381563
     H     2.7254007517   -1.4763847031    1.0809321314
     H     1.4656068041   -2.7137242655    1.0352716688
     H     2.0382051738   -2.0912519758    2.5879478799
     H    -0.7456180283   -3.0500419164    1.0832668744
     H    -2.2928280977   -2.2247325851    0.8648135154
     H    -1.6756072588   -2.5300065147    2.4922976795
     H    -1.4424312867   -2.8010526214   -1.4572291227
     H     0.2813099206   -3.1189792706   -1.2560953298
     H    -0.4017880504   -2.9483308427   -2.8781334511
     H     2.3399246382   -2.1829413349   -1.3643578446
     H     3.1831356444   -0.6390513084   -1.2059029210
     H     2.7992835493   -1.2787523693   -2.8099591535
     H     1.6748417348    2.9054193650   -1.2242821866
     H     2.2910897192    2.2831532843   -2.7601444727
     H     2.8938741313    1.6262349933   -1.2353735104
     H    -1.4197189775    2.8509361185   -2.8712605071
     H    -0.5121073459    3.3356231736   -1.4355065073
     H    -2.0929011721    2.5648558423   -1.2629748936
     H    -2.9716873972   -1.1139452738   -1.2851579622
     H    -2.9832832668   -0.4853803384   -2.9364659742
     H    -3.2103697921    0.6132408267   -1.5697940729
