26
-4.6573479456225061e+02 frame 26   xyz file generated by TeraChem
     C     0.4225213213   -0.5675296308   -0.0591606914
     C     1.5166692237   -1.4483168440    0.0289664352
     C     2.8281591191   -0.9905216701    0.1061626668
     C     3.0816632919    0.3835003751    0.0659870161
     C     2.0151057605    1.2711209872   -0.0269769189
     C     0.6769258387    0.8322287169   -0.0646425023
     C    -0.3545144126    1.8798580964   -0.1353898097
     C    -1.6420373390    1.8412961993    0.2450632080
     C    -2.5930439409    2.9885125249    0.0721182444
     H    -3.4510083398    2.6928465181   -0.5477053891
     H    -3.0050034429    3.3173754419    1.0354553586
     H    -2.1065015241    3.8445654530   -0.4076068131
     H    -2.0479699882    0.9489511143    0.7149874864
     H     0.0090659164    2.8226178059   -0.5488083258
     H     2.2088671398    2.3404367368   -0.0629101599
     H     4.1010352241    0.7577942726    0.0950118550
     H     3.6481186961   -1.7006794167    0.1659061528
     H     1.3250245613   -2.5166127819   -0.0034862037
     C    -0.9328614799   -1.1152094081   -0.2308396203
     C    -1.3772857665   -2.2879941283    0.2447480737
     C    -2.7440926678   -2.8456623318   -0.0174830060
     H    -3.3335751541   -2.1778831625   -0.6546319642
     H    -2.6823456595   -3.8254001725   -0.5110140980
     H    -3.2949734455   -3.0046851683    0.9195180013
     H    -0.7280467668   -2.8869883262    0.8839909583
     H    -1.6141540652   -0.5142146011   -0.8309573541
