51
-9.2541221319098895e+02 frame 6   xyz file generated by TeraChem
    Co    -0.0913195161    0.0970307529   -0.0636686851
     C     0.7724475481   -0.1606543861    1.7695961097
     C    -0.0124252406    0.9963849952    1.8587173979
     C    -0.0793567103   -1.2735116682    1.4768914552
     C    -1.3679910562   -0.7839154376    1.3152132482
     C    -1.3151817438    0.6250116408    1.4841024429
     C     0.3960631245   -2.6942930123    1.3866356407
     C     2.2458033604   -0.2076007966    2.0469128374
     C     0.4195871747    2.3990718737    2.1659798538
     C    -2.5832114213   -1.6037668553    0.9869446518
     C    -2.5159177635    1.5225535256    1.3942416214
     C    -0.9937037128    0.3102123983   -1.9826600326
     C    -0.2402371654    1.5509207151   -1.6841787432
     C    -0.0502470527   -0.8022361906   -2.0349377560
     C     1.2627732081   -0.2750048498   -1.6415394773
     C     1.1478406579    1.2010258621   -1.4930116228
     C     2.2962762565    2.1154453024   -1.2017465401
     C     2.5259764059   -1.0789083052   -1.5914639616
     C    -0.4048045893   -2.2152404318   -2.3925508363
     C    -0.7908891489    2.9427537128   -1.6427483570
     C    -2.4539484690    0.3058580230   -2.3213786674
     H     1.4651689373    2.5676185223    1.8843513254
     H     0.3264710447    2.6357108765    3.2334877383
     H    -0.1890739481    3.1265539578    1.6165428702
     H     2.7436340266   -0.9591445971    1.4239610602
     H     2.4505589948   -0.4653023996    3.0934866375
     H     2.7190626856    0.7584576650    1.8438137830
     H     1.4070725607   -2.7477819953    0.9671782552
     H    -0.2573173571   -3.2947861973    0.7430346190
     H     0.4254858724   -3.1803663501    2.3701002732
     H    -2.3107317467   -2.5124720411    0.4378053271
     H    -3.2850603813   -1.0432919902    0.3581090491
     H    -3.1309425258   -1.9134509763    1.8861155804
     H    -3.2314117752    1.1520858796    0.6516101261
     H    -2.2342626671    2.5402284925    1.1034917457
     H    -3.0446240117    1.5887598562    2.3532639822
     H    -3.0027395972    1.0512227646   -1.7396291258
     H    -2.9105638341   -0.6712211217   -2.1344581997
     H    -2.6132151775    0.5430367768   -3.3855449686
     H    -1.4513678112   -2.4387345605   -2.1629047986
     H     0.2169996337   -2.9360381578   -1.8519792649
     H    -0.2605181759   -2.4082930098   -3.4681625527
     H     3.2430625263   -0.6617233094   -0.8794392580
     H     3.0185976637   -1.0973248124   -2.5765055750
     H     2.3309664943   -2.1172727051   -1.3064755269
     H     2.7920094866    2.4463819262   -2.1284057730
     H     3.0558635016    1.6205687707   -0.5893773290
     H     1.9724958968    3.0137534210   -0.6672879816
     H    -1.8058970936    2.9657431553   -1.2349247095
     H    -0.8386163525    3.3811501047   -2.6524646595
     H    -0.1686510163    3.6011851859   -1.0300832294
