51
-9.2533512440957384e+02 frame 38   xyz file generated by TeraChem
    Co    -0.0350462853    0.1263877517   -0.3010890845
     C    -1.2397440013    0.3696674583    1.3548497163
     C    -0.6133978734   -0.9230816081    1.3657685266
     C    -0.2042585317    1.3625259904    1.3466070012
     C     1.0617192046    0.6843089712    1.3488335018
     C     0.8103507661   -0.7297370861    1.3636608454
     C    -0.3996572704    2.8439002948    1.3946389499
     C    -2.7092983147    0.6381588766    1.4052269650
     C    -1.3265167444   -2.2347030750    1.4231170886
     C     2.4020117605    1.3452515464    1.3983460418
     C     1.8448829804   -1.8058789219    1.4169403730
     C     1.1793703977   -0.0636765659   -1.9247343493
     C     0.1975308847   -1.1125763799   -1.9194322300
     C     0.4825998266    1.1950974130   -1.9417279896
     C    -0.9303874628    0.9226108280   -1.9399409290
     C    -1.1042975139   -0.5046669677   -1.9284008993
     C    -2.4079938069   -1.2357965907   -1.9380284659
     C    -2.0269516590    1.9377264817   -1.9413591622
     C     1.1201938856    2.5471985237   -1.9550511596
     C     0.4784728498   -2.5813712042   -1.9082072765
     C     2.6624757614   -0.2505285330   -1.9150016249
     H    -2.3001664240   -2.1879573248    0.9302531585
     H    -1.5005448343   -2.5118661547    2.4715420465
     H    -0.7414050290   -3.0348989823    0.9645082897
     H    -2.9574263848    1.6081853132    0.9677597577
     H    -3.0488687943    0.6509410781    2.4491526916
     H    -3.2799309610   -0.1328074021    0.8818048789
     H    -1.3432659955    3.1413985268    0.9305497065
     H     0.4131003405    3.3723048293    0.8903182658
     H    -0.4199900166    3.1843225674    2.4378534085
     H     2.4139391862    2.2765366537    0.8265143641
     H     3.1884742942    0.6934395649    1.0111619579
     H     2.6554061786    1.5934687755    2.4371958749
     H     2.7738521032   -1.4973836833    0.9322756060
     H     1.4955290239   -2.7273067592    0.9463107359
     H     2.0812887192   -2.0375531729    2.4640769181
     H     2.9493291301   -1.1395252994   -1.3477489635
     H     3.1707122492    0.6123877249   -1.4788961559
     H     3.0339734444   -0.3762276494   -2.9396361685
     H     2.0477242569    2.5615710132   -1.3775552504
     H     0.4511195489    3.3104164089   -1.5515499463
     H     1.3689439117    2.8330861305   -2.9851818952
     H    -2.9214119306    1.5625724696   -1.4387828875
     H    -2.3070913229    2.1859034912   -2.9731956390
     H    -1.7166635971    2.8626921225   -1.4499053467
     H    -2.7586217625   -1.3643980857   -2.9695009907
     H    -3.1799231761   -0.6899362198   -1.3895496452
     H    -2.3120076699   -2.2297260420   -1.4940540807
     H     1.4686369168   -2.7971016670   -1.4994615131
     H     0.4431688587   -2.9821694234   -2.9286449717
     H    -0.2602891175   -3.1260560068   -1.3141100450
