49
-8.9000190272526493e+02 frame 33   xyz file generated by TeraChem
    Cr    -0.0063557000   -0.0065131252    0.0036639122
     N    -1.7660207482   -0.5637123842    1.0684126165
     N    -0.2328981163    1.7393097310    1.1673982864
     N    -1.4783383639    1.0197249448   -1.1796015417
     C    -3.0170212905   -0.1762166828    0.3260637296
     C    -2.7040516450    0.1677928102   -1.1251928621
     C    -1.7035323361    2.4187997991   -0.6668947126
     C    -0.5487618520    2.8505689540    0.2183222281
     C    -1.6356202264    0.0830451252    2.4179503127
     C    -1.2778787531    1.5578860223    2.2436785300
     H    -3.7318677561   -1.0002369274    0.3645518722
     H     0.3483368871    3.0359976980   -0.3763206196
     H    -0.7960508919    3.7673524656    0.7614199429
     H     0.6497477427    1.9646731834    1.6299166000
     H    -2.4926751753   -0.7313062231   -1.7080426139
     H    -3.4680265614    0.6741282452    0.8378250493
     H    -0.8977456372    1.9675982793    3.1801925993
     H    -1.7988853193    3.0954038445   -1.5197844455
     H    -1.7857958357   -1.5754472004    1.2045611704
     H    -2.1559017097    2.1404460063    1.9625712995
     H    -3.5505916754    0.6833009594   -1.5909106681
     H    -1.1703175364    1.0823267564   -2.1515962679
     H    -2.5669973730   -0.0232809569    2.9809878709
     H    -2.6512209069    2.4418072002   -0.1301543556
     H    -0.8447720232   -0.4542523279    2.9445257916
     N     1.5144024450   -0.9618332052    1.1878080253
     N     0.2297853532   -1.7857355551   -1.1394469987
     N     1.7231867285    0.5643169995   -1.1097870381
     C     2.8926902697   -0.5596753814    0.7335143964
     C     1.2452598428   -2.4281877505    1.0573544609
     H     1.4143219561   -0.7041946288    2.1696590304
     C     0.8157945009   -1.3523558348   -2.4356478004
     C     1.0727964024   -2.8006579151   -0.4122828374
     H    -0.6808799212   -2.2088742599   -1.3225626033
     C     2.8412565341    0.6944609254   -0.1321102512
     C     2.0135868579   -0.4444466348   -2.1888025465
     H     1.5728788380    1.4687347568   -1.5598079458
     H     3.5249319791   -0.3852708050    1.6055917535
     H     3.3245758881   -1.3950268606    0.1817415175
     H     2.0593534983   -3.0094345574    1.5011264958
     H     0.3323724692   -2.6311872537    1.6206928598
     H     0.0313023748   -0.8274307007   -2.9871288556
     H     1.1163378538   -2.2209488174   -3.0319417012
     H     0.6022647833   -3.7820803021   -0.4952911373
     H     2.0381044267   -2.8590260239   -0.9162903884
     H     2.6484952726    1.5867952990    0.4665114213
     H     3.7916370624    0.8335193167   -0.6580023408
     H     2.2747221393    0.0774637722   -3.1122561159
     H     2.8847939484   -1.0274800801   -1.8912381248
