49
-8.9011475262497811e+02 frame 26   xyz file generated by TeraChem
    Cr     0.0266258000    0.1201893674    0.0089578704
     N     1.5761834582    0.8394540730    1.2225953614
     N     0.1653426182   -1.4746923927    1.4643281671
     N     1.9993020930   -1.1911151691   -0.7224405914
     C     2.9543398281    0.3915806333    0.8588843673
     C     3.0543276769   -0.2062870435   -0.5157041275
     C     2.0916587914   -2.3877021607    0.1335518965
     C     0.7721879280   -2.6740714111    0.8254966079
     C     1.1572164739    0.4175461150    2.5952968042
     C     0.9155135016   -1.0458348266    2.6561792017
     H     3.6486857697    1.2270573093    0.9337987233
     H     0.0519229271   -3.0336513412    0.0903476940
     H     0.9098683517   -3.4724281628    1.5586315521
     H    -0.7720547610   -1.7328482509    1.7531274216
     H     2.9419223145    0.5631030233   -1.2812333886
     H     3.2785673891   -0.3331646620    1.6008631772
     H     0.3908412817   -1.3109055626    3.5725664215
     H     2.3714411733   -3.2682816305   -0.4443192453
     H     1.5775663300    1.8538302139    1.2314584228
     H     1.8581674331   -1.5848450002    2.6925478380
     H     4.0612188588   -0.6183911657   -0.6390401136
     H     2.0301954916   -1.4715937217   -1.6944454429
     H     1.8994016232    0.6955252899    3.3474574319
     H     2.8875578657   -2.2622960688    0.8650063674
     H     0.2426619550    0.9642108086    2.8234375170
     N    -2.0598955810    1.0955670085    0.7386165965
     N    -0.2101821560    1.6976632250   -1.4023236894
     N    -1.4436229047   -0.8676517576   -1.3095611531
     C    -3.1636375031    0.4074804680   -0.0029804658
     C    -1.8061020939    2.5081279523    0.3632288553
     H    -2.2686024883    1.0787597497    1.7287516431
     C    -0.4171323778    0.9364327793   -2.6917478897
     C    -1.3088013455    2.6451355558   -1.0631376606
     H     0.6431728140    2.2335077426   -1.5188789677
     C    -2.7305397839   -0.9532925050   -0.5794976382
     C    -1.5338665993   -0.0981325078   -2.5912043342
     H    -1.1498095744   -1.8151074690   -1.5205293126
     H    -4.0180370798    0.2298966009    0.6497939453
     H    -3.5350917230    1.0560087492   -0.7942882309
     H    -2.6939667934    3.1410343987    0.4650274029
     H    -1.0659063789    2.8983115806    1.0638418123
     H     0.5238759918    0.4321126091   -2.9090754781
     H    -0.6234167168    1.6216359413   -3.5173767342
     H    -0.9857197129    3.6696698043   -1.2412858701
     H    -2.1326137773    2.4740606651   -1.7505767468
     H    -2.5872384645   -1.6605484547    0.2377906068
     H    -3.5172283683   -1.3620145457   -1.2184363803
     H    -1.5063842795   -0.7710476358   -3.4465498647
     H    -2.4991865764    0.3986424816   -2.6320033798
