49
-9.0754278475983210e+02 frame 0   xyz file generated by TeraChem
    Mn     0.0006135586    0.0003708251   -0.0080354201
     N     0.0727797859    1.5677731479   -1.3590077164
     N    -2.0142468271    0.4528705137   -0.0153429582
     N     0.0508701146    1.5403768405    1.3671528104
     C     0.3374497196    2.8771317408   -0.6605808146
     C     0.8532985123    2.6330466435    0.7384378354
     C    -1.3355948571    1.9817363755    1.7633878059
     C    -2.3523951375    0.9439548524    1.3521436007
     C    -1.2260705243    1.5481473219   -2.0941805635
     C    -2.3574931886    1.4422259678   -1.0989854491
     H     1.0443131964    3.4725416577   -1.2329122017
     H    -2.3457294154    0.0879828399    2.0240914356
     H    -3.3596702132    1.3590410048    1.3874027036
     H    -2.5713576000   -0.3789807687   -0.1823323739
     H     1.8969170667    2.3257245704    0.7348131010
     H    -0.5882582457    3.4419196303   -0.6375794750
     H    -3.2773124641    1.1486316610   -1.5986397241
     H    -1.3779022443    2.1620523315    2.8345677052
     H     0.8119247156    1.4321587839   -2.0411542653
     H    -2.5627284386    2.4015876006   -0.6360383731
     H     0.8023614340    3.5457023184    1.3321475550
     H     0.5366441322    1.2549727818    2.2114245721
     H    -1.3396857509    2.4384382995   -2.7128719017
     H    -1.5396608283    2.9352189135    1.2876352620
     H    -1.2084795878    0.6998005726   -2.7753072959
     N    -0.0735750816   -1.5669274126   -1.3578658865
     N     2.0155485467   -0.4530873143   -0.0132794462
     N    -0.0499172638   -1.5400354341    1.3676030391
     C    -0.3387893785   -2.8765028571   -0.6597955053
     C     1.2254976916   -1.5464517172   -2.0929934182
     H    -0.8126759253   -1.4297804056   -2.0398250631
     C     2.3536740123   -0.9458384214    1.3536100211
     C     2.3569679818   -1.4422215944   -1.0977114065
     H     2.5736143049    0.3780645721   -0.1806138637
     C    -0.8530588173   -2.6324509373    0.7398338396
     C     1.3358743485   -1.9829391514    1.7641751278
     H    -0.5355042944   -1.2549182063    2.2120136204
     H    -1.0466575558   -3.4707008822   -1.2321307684
     H     0.5865758280   -3.4418940194   -0.6381129306
     H     1.3383908574   -2.4362114306   -2.7125764943
     H     1.2080420661   -0.6973853699   -2.7731465735
     H     2.3481306797   -0.0903722714    2.0263049759
     H     3.3605935694   -1.3618209856    1.3882925498
     H     3.2770267213   -1.1496266257   -1.5975129746
     H     2.5611209622   -2.4020181086   -0.6352307496
     H    -1.8966509909   -2.3250389998    0.7372119350
     H    -0.8017580294   -3.5454727360    1.3329627178
     H     1.3780080300   -2.1637496090    2.8352834267
     H     1.5396639240   -2.9364057085    1.2882150733
