49
-9.0774408749851932e+02 frame 44   xyz file generated by TeraChem
    Mn     0.0427720336    0.0481261143    0.0259837649
     N     1.9129903516    0.9936443624    0.8510447896
     N    -0.2302456939   -0.3748615904    2.1980200880
     N     1.4344957514   -1.7612952499    0.2926509092
     C     3.0498555273    0.0347902803    0.8807207930
     C     2.7792051728   -1.2017280775    0.0273247854
     C     1.2386824679   -2.3406250973    1.6373214723
     C    -0.0566551798   -1.8471110332    2.2866724306
     C     1.4545073415    1.4846458598    2.1684923362
     C     0.7648877680    0.3954534497    2.9947065195
     H     3.9673864226    0.5164215359    0.5287246291
     H    -0.9172391943   -2.2960281553    1.7794993039
     H    -0.0763378333   -2.1912042967    3.3276910109
     H    -1.1689045070   -0.1529777382    2.5200043882
     H     2.8094585712   -0.9413828008   -1.0370966832
     H     3.2427413316   -0.2569630795    1.9147274385
     H     0.2854385279    0.8550949572    3.8616836051
     H     1.2019354944   -3.4326870586    1.5808359001
     H     2.2035152558    1.8099042709    0.3154808108
     H     1.5108695256   -0.2946838022    3.3939964301
     H     3.5743578462   -1.9396058871    0.2001599851
     H     1.2706484863   -2.4899208829   -0.3996939964
     H     2.2843081609    1.9119428682    2.7454012490
     H     2.1038056147   -2.1030214194    2.2589852909
     H     0.7480794377    2.2980508343    1.9695842908
     N    -1.4650428340    1.7157233732   -0.2132284151
     N     0.1764196283    0.5403944620   -2.2390646575
     N    -1.7611243577   -1.0859892639   -0.8763902316
     C    -2.8065113912    1.1677796403   -0.5647661307
     C    -0.8897799296    2.5865988287   -1.2796687006
     H    -1.5488198175    2.2754060002    0.6317756921
     C    -0.3564477960   -0.6713978097   -2.9089680091
     C    -0.5522483124    1.7954538193   -2.5406334669
     H     1.1389834626    0.6405193112   -2.5570406519
     C    -2.9140234745   -0.3399947518   -0.3205830243
     C    -1.7209352261   -1.0829865443   -2.3667583533
     H    -1.8233171814   -2.0477316860   -0.5521197049
     H    -3.5865770301    1.6721110170    0.0113711714
     H    -3.0157177187    1.3937149194   -1.6135888593
     H    -1.5701793880    3.4041739911   -1.5546011120
     H     0.0132126932    3.0444922763   -0.8644560941
     H     0.3690090510   -1.4720461208   -2.7318930354
     H    -0.4257727737   -0.5354968512   -3.9984668886
     H     0.0364143006    2.4341280389   -3.2078374581
     H    -1.4619606173    1.5518687621   -3.0965717973
     H    -2.9312580878   -0.5358936105    0.7548340760
     H    -3.8660645238   -0.7024485554   -0.7321424772
     H    -1.9781958389   -2.0692988016   -2.7654497831
     H    -2.4898924177   -0.4024180089   -2.7417265301
