49
-9.2724679057557319e+02 frame 47   xyz file generated by TeraChem
    Fe    -0.0114061044    0.0032670323    0.0037154895
     N     0.0375631954   -0.1503716183   -1.9919651411
     N    -1.3900163028    1.4939078036   -0.3806010581
     N     1.3343773171    1.5130879196   -0.2453118886
     C     1.1249531703    0.7112449522   -2.5575438926
     C     2.0981856636    1.1524120330   -1.4694519901
     C     0.6542104313    2.8439131516   -0.3522889443
     C    -0.7915118817    2.7508247750    0.1311192449
     C    -1.3089832954    0.2294424180   -2.4902512568
     C    -1.7270296167    1.5384838284   -1.8292462442
     H     1.6575327584    0.1760975736   -3.3481871820
     H    -0.8404609395    2.7182948303    1.2229105977
     H    -1.3549640263    3.6335367313   -0.1977292798
     H    -2.2530490413    1.3276684125    0.1344282467
     H     2.7785858908    0.3387650336   -1.2063230341
     H     0.6646204478    1.5850438508   -3.0227431154
     H    -2.7974892605    1.7122547727   -1.9693154777
     H     1.1992302912    3.5947894163    0.2258681804
     H     0.2187515752   -1.1105281989   -2.2790877754
     H    -1.2059548083    2.3827064721   -2.2849656039
     H     2.7095191741    1.9898848142   -1.8277935543
     H     1.9971292805    1.5627024915    0.5264557016
     H    -1.3222330599    0.3312663662   -3.5826902757
     H     0.6803605910    3.1601454890   -1.3970018470
     H    -1.9965022866   -0.5751514838   -2.2209419973
     N    -1.3971466801   -1.4739468658    0.3745650810
     N     1.3189987632   -1.5146831096    0.2449276266
     N     0.0353109236    0.1407407684    2.0015923357
     C    -1.7441361444   -1.5236819308    1.8230646511
     C    -0.8106937750   -2.7376746598   -0.1296187373
     H    -2.2526995131   -1.2975272300   -0.1475643792
     C     2.0881315506   -1.1671072156    1.4682376152
     C     0.6332598138   -2.8439882557    0.3528258670
     H     1.9755417931   -1.5633553186   -0.5308473740
     C    -1.3168140149   -0.2283424291    2.4950359134
     C     1.1154506050   -0.7306221992    2.5618493978
     H     0.2230385963    1.0983026494    2.2939162859
     H    -2.8175729779   -1.6863463939    1.9554055781
     H    -1.2344213606   -2.3772745760    2.2752302238
     H    -1.3850164307   -3.6137329534    0.1980707328
     H    -0.8562116909   -2.7058382216   -1.2214182699
     H     2.7719712247   -0.3552171224    1.2091395897
     H     2.6954648684   -2.0095212747    1.8231217275
     H     1.1717267782   -3.5967703046   -0.2289290402
     H     0.6606894520   -3.1646431345    1.3965839624
     H    -1.9942527765    0.5861645460    2.2278795202
     H    -1.3344988832   -0.3354033850    3.5873033907
     H     1.6519048962   -0.2066759185    3.3579394802
     H     0.6472845190   -1.6059033315    3.0155779192
