49
-9.7311377004208225e+02 frame 44   xyz file generated by TeraChem
    Ni    -0.0068809319   -0.0161163297    0.0025907278
     N    -1.9034376164    0.6369888551    0.7245805473
     N     0.6683711606    1.5011758490    1.3455771075
     N    -0.2749841247    1.7033822951   -1.2587686092
     C    -2.4646290076    1.7162932004   -0.1384885530
     C    -1.7349094908    1.7911164643   -1.4690503839
     C     0.3241828074    2.9160209391   -0.6383405394
     C     1.2734913631    2.5419642218    0.4878164852
     C    -1.6577562419    1.0615057843    2.1208412128
     C    -0.4547543745    2.0006482183    2.1904029250
     H    -3.5339696382    1.5627177090   -0.3085225251
     H     2.2017276137    2.1280447368    0.0844242126
     H     1.5425920442    3.4409797523    1.0569423587
     H     1.3992503961    1.1441714292    1.9562117647
     H    -2.0191907757    0.9538696003   -2.1139452147
     H    -2.3752983808    2.6681610168    0.3878859130
     H    -0.1385183451    2.1141231294    3.2303367822
     H     0.8601020222    3.5084841624   -1.3861777004
     H    -2.5682695935   -0.1332643989    0.7482068907
     H    -0.7306493766    3.0013051881    1.8499664895
     H    -2.0187356231    2.7108360057   -1.9976018601
     H     0.1570551769    1.5608806982   -2.1693112691
     H    -2.5369661523    1.5505396312    2.5598298439
     H    -0.4796689566    3.5560514017   -0.2696386671
     H    -1.4711626999    0.1567305870    2.7043096631
     N     0.3130503879   -1.6710553177    1.2986846948
     N    -0.7066127430   -1.5458842671   -1.3297677026
     N     1.9051216242   -0.6298373230   -0.7939560434
     C     1.6953898240   -2.2021614068    1.1104611426
     C    -0.7512275912   -2.6332794081    0.9238839037
     H     0.1845879481   -1.4160994275    2.2750036339
     C     0.2686705490   -1.5470275182   -2.4397426731
     C    -0.8056812061   -2.8355061537   -0.5919776792
     H    -1.6191038428   -1.3203054661   -1.7172852004
     C     2.5995395024   -1.2123084872    0.3734068749
     C     1.7034413645   -1.5818523305   -1.9195691547
     H     2.4527927677    0.1594320728   -1.1274809034
     H     2.1391325645   -2.4553282686    2.0772235388
     H     1.6346947927   -3.1368006078    0.5492407565
     H    -0.6103958996   -3.6047248240    1.4143285958
     H    -1.6969222325   -2.2232379010    1.2887967635
     H     0.0999232020   -0.6331006063   -3.0154565318
     H     0.1077636402   -2.3928534743   -3.1211015207
     H    -1.7304646984   -3.3566221607   -0.8545332066
     H     0.0092215393   -3.4877261019   -0.9142511425
     H     2.8693575881   -0.3858463492    1.0366492906
     H     3.5334914601   -1.7112199652    0.0845367523
     H     2.3946958222   -1.3645355042   -2.7384637043
     H     1.9532712817   -2.5880880508   -1.5737613871
