37
-6.5787561356077890e+02 frame 44   xyz file generated by TeraChem
    Cr     5.8937632107    3.3371999190    6.5987835285
     N     5.1904619807    2.3968105795    4.7417897377
     H     4.2423349243    2.0377209140    4.8580388013
     H     5.1260236533    3.0712998731    3.9774802905
     N     7.9377195134    2.1967053799    5.6474006447
     H     8.7998903299    2.7374487761    5.5985383504
     H     8.1717704766    1.3802127985    6.2137804365
     C     6.0882938900    1.2958698279    4.2993549821
     H     5.8265187783    0.9403072724    3.2966010778
     H     5.9480564678    0.4577382428    4.9909174011
     C     7.5363202444    1.7654419956    4.3043066466
     H     8.1738891617    0.9642425463    3.9065397249
     H     7.6435951593    2.6261638901    3.6346033790
     N     3.8192901064    4.6935519638    6.7496616895
     H     2.9503826967    4.2288936732    6.4876840874
     H     3.6535566034    5.0512213017    7.6906669180
     N     6.4606946319    5.1994543479    5.6421126701
     H     7.4013212293    5.4950059327    5.9082663411
     H     6.5092279933    5.0777650642    4.6296570126
     C     4.0712154349    5.8270378817    5.8348752658
     H     3.4021237139    6.6781726250    6.0170715447
     H     3.8887877588    5.4872500172    4.8089252513
     C     5.5134255588    6.2956416138    5.9765028817
     H     5.6962777908    7.1771490326    5.3518415524
     H     5.7016388365    6.5862862309    7.0161254111
     N     5.0241124296    1.6924020117    7.6733666695
     H     4.0688753485    1.4597971154    7.4006691669
     H     5.5634839838    0.8364018552    7.5311957572
     N     6.5144420890    3.9298528704    8.5298604361
     H     7.4708543261    4.2842482514    8.5789542949
     H     5.9331384010    4.6925018179    8.8836392467
     C     5.0512135319    2.0546968681    9.1151168707
     H     4.9038561998    1.1804484525    9.7577004106
     H     4.2198338863    2.7445653334    9.2957946339
     C     6.3673119196    2.7506260146    9.4301425955
     H     6.3946072861    3.0466554525   10.4845223129
     H     7.2122155533    2.0802840567    9.2475417784
