41
-7.9403780322218768e+02 frame 20   xyz file generated by TeraChem
    Co     3.0968712722    7.1581337327   10.4798974334
     N     4.4358247699    7.7893010559   12.3208425822
     H     4.9884509332    6.9911826706   12.6324368164
     H     5.1167361065    8.5334125010   12.1749670196
     N     1.6558448573    7.4374125954   11.8470674983
     H     0.9982961837    6.6587395320   11.8250076281
     N     2.6929188938    9.0127198541    9.9001592173
     H     3.5207641196    9.5849011911    9.7291761257
     H     2.2059932698    8.9717126502    9.0035050224
     N     3.3501092582    5.2172988977   11.0752202268
     H     4.3254060414    5.0264151795   11.3057364725
     H     2.8459371454    5.0461664141   11.9450702387
     N     1.9133234942    6.1109730465    8.8267454867
     H     1.0263242454    6.5406966582    8.5760067497
     N     4.5531706658    7.0071344472    9.0284465808
     H     5.2570434979    7.7392844570    9.1271278060
     H     5.0845371666    6.1374313855    9.1007604600
     C     3.5025104383    8.2087504144   13.3874579556
     H     3.9031631476    8.0363996599   14.3939532530
     H     3.3446197689    9.2861328977   13.3007560461
     C     2.1926967287    7.4483346977   13.2444308349
     H     1.4391569838    7.8423993002   13.9361698744
     H     2.3606773922    6.4038508889   13.5243985696
     C     0.8814262281    8.6522444901   11.4682626530
     H     0.3192086112    9.0415614826   12.3243716718
     H     0.1586476831    8.3470423856   10.7060082644
     C     1.8149242540    9.6989504620   10.8872832365
     H     1.2489802379   10.5085727118   10.4164603342
     H     2.4483808878   10.1482759396   11.6526463111
     C     2.8850854119    4.2323458576   10.0679930902
     H     2.6792031917    3.2603936156   10.5274752730
     H     3.6955295633    4.0761518746    9.3514328071
     C     1.6425045636    4.7715909792    9.3805050986
     H     1.3148952064    4.0589761069    8.6099632036
     H     0.8244566054    4.8639560712   10.1023074293
     C     2.7736071890    6.0746161748    7.6116320542
     H     3.1771902684    5.0656674888    7.4848462344
     H     2.1830223527    6.2826412778    6.7134842204
     C     3.9276628537    7.0745370706    7.6860552494
     H     4.6578849672    6.8633772854    6.8964219282
     H     3.5769753442    8.0976655981    7.5294279425
