41
-7.9389352994799242e+02 frame 61   xyz file generated by TeraChem
    Co     3.0893885961    7.2151055430   10.4731465774
     N     4.0418744713    8.4809779493   11.6540059212
     H     4.9386461331    8.0586804921   11.8991925058
     H     4.2747806659    9.3492476178   11.1701688864
     N     1.7616260017    7.0836101164   11.9515142499
     H     1.5014047817    6.1137928861   12.1324764813
     N     1.9353774466    8.6512415752    9.7265448936
     H     2.4673587422    9.4843438719    9.4658956225
     H     1.4920548393    8.3384728131    8.8625118752
     N     4.1708984293    5.6998002051   11.1665022588
     H     5.1735728389    5.8971068674   11.1545639479
     H     3.9467834209    5.5399730224   12.1498353145
     N     2.2429871682    5.8415093774    9.3036934875
     H     1.2386494864    6.0023720336    9.2298870138
     N     4.3231367203    7.4804242268    8.9516128684
     H     4.6810263740    8.4365208486    8.9074149904
     H     5.1517654333    6.8906034762    9.0495886769
     C     3.2729193407    8.7897160939   12.9013915213
     H     3.9620664129    8.9872207167   13.7251576587
     H     2.6961375459    9.6948621880   12.7205265884
     C     2.3763687629    7.6058551950   13.2201202823
     H     1.5912221988    7.8774924889   13.9300373347
     H     2.9582433255    6.7868494744   13.6484086809
     C     0.5126075307    7.7807934877   11.5041150112
     H    -0.1101772892    8.0281162626   12.3679997851
     H    -0.0374725389    7.0721791048   10.8791521782
     C     0.8668385825    9.0207644329   10.7029643120
     H    -0.0115977824    9.3972384292   10.1729934001
     H     1.2472118480    9.8213239177   11.3344254987
     C     3.8963898228    4.4500466804   10.3920542713
     H     4.0878459515    3.5693014106   11.0083431221
     H     4.5802060637    4.4273740144    9.5418930525
     C     2.4513643098    4.5071004688    9.9420208211
     H     2.2158420187    3.7077325592    9.2332340361
     H     1.7695393765    4.4225923661   10.7906519362
     C     2.8250272401    5.8713075883    7.9073420584
     H     3.4779320847    5.0050709830    7.7977266189
     H     2.0147832557    5.7725711019    7.1826073354
     C     3.6203339713    7.1476834364    7.6735095868
     H     4.3443118474    7.0104011337    6.8662552860
     H     2.9806863710    7.9899745431    7.4104309520
