61
-1.4223259961222311e+03 frame 19   xyz file generated by TeraChem
    Cr     2.5493961809    7.0566568446   13.4531274485
     N     1.8196585438    8.5110753054   14.7330096924
     N     0.7134862665    6.2681278730   13.8306658944
     N     1.4336286990    7.8786950608   11.9216950422
     N     3.2577583411    5.6128916848   12.1979145454
     N     3.3226149977    5.8537565892   14.8812758213
     N     4.4338830948    7.9883671055   13.6270681734
     C     0.5815746776    8.3469298615   15.2062198867
     C    -0.0031417872    9.2282119398   16.1066096189
     C     0.7159674985   10.3552107237   16.4924795612
     C     1.9910355074   10.5591434164   15.9634900289
     C     2.5122658600    9.6165429841   15.1008446300
     C     0.3146821121    7.2115186098   11.5930086443
     C    -0.5293791036    7.6338957605   10.5713350584
     C    -0.1954168613    8.7946917474    9.8733036015
     C     0.9471002804    9.4996118736   10.2423276352
     C     1.7322032820    9.0211024735   11.2706288556
     C     0.1074788035    6.0036156297   12.4587847623
     C    -0.1631602969    7.2283653814   14.5785745900
     C     1.0202094227    5.0219349649   14.6161652812
     C     3.8796687001    4.5845106091   12.7687214795
     C     4.3353580247    3.5213444835   11.9908237027
     C     4.1732160847    3.5594833337   10.6086737236
     C     3.5622722525    4.6671990160   10.0212251022
     C     3.1103608013    5.6687829252   10.8506047324
     C     5.0392825362    7.6841612609   14.7907860107
     C     6.2982800385    8.2249830984   15.0373698727
     C     6.8940887085    9.0619222157   14.0795581099
     C     6.2529049866    9.3292014504   12.8746244944
     C     5.0143449368    8.7540876890   12.6831577885
     C     4.2186259601    6.7707758057   15.6984945685
     C     4.1315227559    4.7487250146   14.2369417369
     C     2.1220966387    5.3423228248   15.6211820090
     H     0.6201399758    5.1475991442   12.0193661216
     H    -0.9508748414    5.7463242318   12.5311017573
     H    -0.7805826453    6.7041230258   15.3064168763
     H    -0.8546451448    7.6627245288   13.8490398670
     H     0.1198567708    4.6460661642   15.1024905668
     H     1.3503427266    4.2556339279   13.9149382637
     H     3.5685891442    7.4017641585   16.3055793698
     H     4.8485148295    6.1949140122   16.3743272927
     H     3.9759276301    3.8123631703   14.7696518624
     H     5.1868611948    5.0000175902   14.3585497865
     H     2.3867877662    4.4816137496   16.2324865710
     H     1.7813208859    6.1271916163   16.2958986793
     H    -1.0082364650    9.0539334404   16.4677255383
     H     0.2843060117   11.0734906731   17.1785107510
     H     2.5750548142   11.4357231121   16.2145802437
     H     3.4961881345    9.7415188092   14.6747176033
     H    -1.4300339632    7.0836944019   10.3304711556
     H    -0.8274365237    9.1573416006    9.0681976243
     H     1.2230333066   10.4191726657    9.7362034455
     H     2.6157093028    9.5593146463   11.5882825931
     H     4.8298436293    2.6831789826   12.4600533974
     H     4.5291646351    2.7453283911    9.9895464321
     H     3.4325742037    4.7539809961    8.9478553392
     H     2.6178265594    6.5434792023   10.4467193845
     H     6.8140809470    7.9978716677   15.9589255734
     H     7.8708189699    9.4903231363   14.2688917051
     H     6.6949380174    9.9525489385   12.1048646009
     H     4.4664054844    8.8990506592   11.7582070954
