31
-5.0608567781379043e+02 frame 67   xyz file generated by TeraChem
     C    -0.7260087212    1.4607733792    0.0942714726
     C    -1.5683932760    0.3083538108    0.0281306592
     C    -0.9415193670   -0.9738597544   -0.0848236140
     C     0.4251075605   -1.0761437859   -0.1273932087
     C     1.2640742624    0.0734213378   -0.0645309346
     C     0.6437679545    1.3432190886    0.0446965490
     H     1.2489754508    2.2385441246    0.0960649505
     C     2.7721560426   -0.0997467359   -0.0469100268
     C     3.2376689761   -0.9861395609   -1.2179828434
     H     2.7720949362   -1.9752405765   -1.2018245399
     H     4.3214498951   -1.1247432318   -1.1459055242
     H     3.0136659129   -0.5124181430   -2.1795443890
     C     3.1164048833   -0.8147052917    1.2926945467
     H     4.2013034319   -0.9537843451    1.3516907166
     H     2.7955091480   -0.2137586263    2.1499025061
     H     2.6393351349   -1.7968683012    1.3583760916
     C     3.5266554328    1.2383946007   -0.0892279571
     H     3.2941174459    1.8598697444    0.7814864516
     H     4.6028438406    1.0407303054   -0.0776453714
     H     3.2945290852    1.8051131408   -0.9969944137
     H     0.8742753008   -2.0593436783   -0.2000603291
     H    -1.5448767784   -1.8726713021   -0.1303255155
     C    -2.9739589665    0.4988276616    0.0727927424
     C    -3.9272263482   -0.4974612384   -0.0134185534
     C    -5.3824900397   -0.2424877484    0.0150934430
     H    -5.8429765297   -0.8149591314    0.8335310894
     H    -5.6226090278    0.8171960289    0.1253856210
     H    -5.8402270432   -0.6307873937   -0.9069036574
     H    -3.6161671438   -1.5341991269   -0.1163974326
     H    -3.3242300478    1.5238779413    0.1745933264
     H    -1.1881819054    2.4388942080    0.1837035446
