31
-5.0628586254815673e+02 frame 81   xyz file generated by TeraChem
     C    -0.7442681820    1.4188572195    0.0791254031
     C    -1.5731962672    0.2877350136    0.0423708794
     C    -0.9409762216   -0.9684868594   -0.0363933217
     C     0.4434623074   -1.0722937036   -0.0805116373
     C     1.2771786161    0.0618780507   -0.0491026925
     C     0.6465894565    1.3093834633    0.0315667906
     H     1.2352009709    2.2190132635    0.0651351677
     C     2.8015544992   -0.1071513868   -0.0382742642
     C     3.2649644321   -0.9720438567   -1.2219072217
     H     2.7960757564   -1.9607743462   -1.2114997507
     H     4.3508815540   -1.1159209495   -1.1766465378
     H     3.0237616594   -0.4906431502   -2.1766699459
     C     3.1906208116   -0.8176747294    1.2830851663
     H     4.2771191051   -0.9566202128    1.3363814741
     H     2.8773252279   -0.2239303478    2.1495036935
     H     2.7177970158   -1.8023120660    1.3578355587
     C     3.5384900294    1.2408794376   -0.0867185213
     H     3.2951603984    1.8621747095    0.7819244197
     H     4.6199953556    1.0667861162   -0.0782158524
     H     3.2927145984    1.8050051164   -0.9931922031
     H     0.8862596723   -2.0628815658   -0.1287385177
     H    -1.5371340656   -1.8762838021   -0.0544482865
     C    -3.0310980767    0.4652725445    0.0857117613
     C    -3.9691348226   -0.4850704722   -0.0480621839
     C    -5.4455844913   -0.2272003243   -0.0065113100
     H    -5.9264585656   -0.7990351205    0.7990166431
     H    -5.6634944712    0.8348204202    0.1487057751
     H    -5.9277642977   -0.5439756333   -0.9416042298
     H    -3.6712337071   -1.5213534370   -0.2069044030
     H    -3.3610181978    1.4948925225    0.2318391321
     H    -1.1987205999    2.4048514861    0.1457244149
