61
-1.4401160034763834e+03 frame 12   xyz file generated by TeraChem
    Mn     2.6561020724    7.5421861592   13.1416480185
     N     1.0707375590    8.5509212361   14.3932160805
     N     1.0542935110    5.8872715719   13.3607972193
     N     1.5323162887    7.6067525822   11.2262242059
     N     4.0949247176    6.0660314069   12.2395237884
     N     3.4205026574    6.3797147643   14.9911410898
     N     4.1763800126    8.8807153401   14.0257784388
     C     0.0323827350    7.7544225753   14.7125725349
     C    -0.8620868785    8.0964323240   15.7272475708
     C    -0.6932518917    9.2990519697   16.4086475760
     C     0.3678937794   10.1332133518   16.0534065047
     C     1.2281490364    9.7183526655   15.0451104156
     C     0.7430932834    6.5322283281   11.0041045852
     C    -0.1026259382    6.4679555222    9.8998015797
     C    -0.1229028094    7.5320008649    8.9989332170
     C     0.6965012677    8.6367728307    9.2303361797
     C     1.5063932960    8.6349996694   10.3606424626
     C     0.8451390008    5.3856397117   11.9896477619
     C    -0.1847179032    6.5121370149   13.8785403487
     C     1.5969317943    4.8616433982   14.2796032117
     C     4.6559385193    5.2211088601   13.1249838756
     C     5.3152041738    4.0635622272   12.7090185388
     C     5.4128557085    3.7861136817   11.3478224716
     C     4.8474549560    4.6772142775   10.4339817261
     C     4.1927859033    5.7997462614   10.9236963527
     C     4.5574167532    8.5465961039   15.2781253860
     C     5.5884439248    9.2237842472   15.9241910873
     C     6.2296627357   10.2750530175   15.2695677808
     C     5.8282596098   10.6173873192   13.9785515185
     C     4.7992498407    9.8889522905   13.3918354730
     C     3.7909555659    7.4303945707   15.9591840895
     C     4.6168417235    5.6044410930   14.5869791804
     C     2.3154102366    5.5127369580   15.4589593219
     H     1.7079895405    4.7691806009   11.7198028675
     H    -0.0466958060    4.7501059891   11.9180750484
     H    -0.7756961372    5.7811082692   14.4430576776
     H    -0.7942620337    6.8111784394   13.0185563018
     H     0.8006314740    4.2038068357   14.6522196922
     H     2.2938384589    4.2398804728   13.7135743047
     H     2.8685272043    7.8436480237   16.3780197510
     H     4.3785050627    7.0272406898   16.7936347099
     H     4.7214945942    4.7069528472   15.2085790288
     H     5.5007511836    6.2220807081   14.7790365969
     H     2.6872550749    4.7342449107   16.1380503942
     H     1.6178329011    6.1339345821   16.0246971783
     H    -1.6757352393    7.4225996980   15.9733451240
     H    -1.3761064014    9.5800259410   17.2043184425
     H     0.5354163005   11.0808303244   16.5529332901
     H     2.0786772686   10.3213881399   14.7473113307
     H    -0.7362343455    5.5988951786    9.7580844848
     H    -0.7769335417    7.5018013383    8.1332339837
     H     0.7051344379    9.4868683806    8.5573782426
     H     2.1571768102    9.4734332106   10.5909747879
     H     5.7394656478    3.3932480553   13.4490414284
     H     5.9178151801    2.8883371281   11.0052585593
     H     4.8991949612    4.5025823700    9.3651124989
     H     3.7160011838    6.5101206962   10.2573704055
     H     5.8839443659    8.9223559702   16.9234580618
     H     7.0366277145   10.8122211299   15.7578663722
     H     6.3038472191   11.4237620880   13.4315843770
     H     4.4552444794   10.1107659871   12.3858974671
