61
-1.4595957155648002e+03 frame 27   xyz file generated by TeraChem
    Fe     2.5779567466    7.0005161819   13.4538494462
     N     3.2320662205    8.2739622528   14.8071857711
     N     2.0703905203    5.9467267650   15.0703095647
     N     0.7591371134    7.7902055020   13.7695488138
     N     1.9202930676    5.8082507487   12.0499714698
     N     4.2387319560    5.9613939009   13.3516168205
     N     3.5416141384    8.0812331212   12.1106300365
     C     3.0373814712    7.9868293415   16.0972994478
     C     3.4564281069    8.8421534754   17.1121918864
     C     4.0611886596   10.0528349013   16.7807695465
     C     4.2216125775   10.3785482514   15.4382570001
     C     3.7992920281    9.4652233787   14.4969147045
     C    -0.0656201139    6.9618356118   14.4435811385
     C    -1.3722579893    7.3447708892   14.7416595538
     C    -1.8382926580    8.6041294436   14.3542415612
     C    -0.9601729476    9.4690633290   13.7160835145
     C     0.3259799853    9.0280136946   13.4544038225
     C     0.5961505733    5.6649862122   14.8587058705
     C     2.2466238562    6.7452835028   16.3266256171
     C     2.9558627521    4.7645293110   15.0268752912
     C     2.7846430642    4.8948918175   11.6020550422
     C     2.4348573719    3.9933897612   10.5996164132
     C     1.1698153073    4.0671208962   10.0227873452
     C     0.2892105628    5.0552393806   10.4561652309
     C     0.6996951073    5.8996796848   11.4677592470
     C     4.8693022292    7.9435897803   12.0689281851
     C     5.6594657448    8.6186719332   11.1422798865
     C     5.0441607638    9.4678236672   10.2209953744
     C     3.6584825805    9.5711448445   10.2348954991
     C     2.9491701696    8.8535855576   11.1792039564
     C     5.3325678100    6.9709773580   13.1093262471
     C     4.1579297288    5.0031200454   12.1889691484
     C     4.3328323781    5.2613476741   14.6510849529
     H     0.5119606067    4.9216086941   14.0667147442
     H     0.1154383415    5.2568392902   15.7500925865
     H     2.6721324952    6.1358023654   17.1224517804
     H     1.2541290133    7.0448213603   16.6722335952
     H     2.9618038183    4.2300995952   15.9777267341
     H     2.5714323765    4.0787642026   14.2717970231
     H     5.4982831348    7.4963904596   14.0482596283
     H     6.2741699846    6.5026157084   12.8176819785
     H     4.5428448283    4.0250901235   12.4741961556
     H     4.8200251149    5.3727388554   11.4030759260
     H     5.0594589831    4.4490312884   14.6102796954
     H     4.6821482258    5.9781113107   15.3927906394
     H     3.2876734817    8.5726145895   18.1457002132
     H     4.3856134921   10.7369911625   17.5540290132
     H     4.6600390566   11.3170840787   15.1207743167
     H     3.9058398977    9.6871474942   13.4464983803
     H    -2.0203781314    6.6697003304   15.2845962278
     H    -2.8543835339    8.9126027785   14.5734470312
     H    -1.2602348086   10.4701440701   13.4247682984
     H     1.0420562242    9.6797101059   12.9710114354
     H     3.1521122716    3.2580961767   10.2618577644
     H     0.8791552306    3.3806182258    9.2373276643
     H    -0.6972073774    5.1752585251   10.0223443002
     H     0.0439519191    6.6773430375   11.8316216947
     H     6.7315761971    8.4803471721   11.1351916043
     H     5.6292516558   10.0164385877    9.4922055804
     H     3.1280286928   10.1914319352    9.5200737815
     H     1.8669226262    8.8896179608   11.2007567020
