61
-1.4593862804919181e+03 frame 12   xyz file generated by TeraChem
    Fe     2.4594710568    7.1386027260   13.4456943656
     N     1.8397685270    9.0396424460   13.3950703507
     N     0.7192262190    6.7704801388   12.5208368453
     N     3.0663084345    7.3195102917   11.5737818670
     N     3.1261713305    5.2687778992   13.4689583971
     N     1.5574034812    6.6339790853   15.1777381657
     N     3.9276741727    7.6167529917   14.7345106353
     C     0.6592340449    9.2548891395   12.7761565147
     C     0.0864874619   10.5218426509   12.6816238530
     C     0.7763292346   11.6157956939   13.2052240375
     C     2.0221410344   11.4030354906   13.8008424044
     C     2.5190301138   10.1087154625   13.8875692016
     C     2.2578342969    6.6877136229   10.6701962294
     C     2.5159176668    6.7333182248    9.3013526020
     C     3.6196442922    7.4509429857    8.8352531839
     C     4.4158418727    8.1287453848    9.7629284775
     C     4.1097951170    8.0460273351   11.1217849218
     C     1.0845728316    5.9849688416   11.2905410505
     C     0.0564730877    8.0622915395   12.1133426319
     C    -0.1049019842    6.0124051729   13.5152048886
     C     2.7714610698    4.5316135505   14.5350930995
     C     3.1764057496    3.1964028018   14.6306256234
     C     3.9809777777    2.6430135135   13.6308581255
     C     4.3839275858    3.4355460364   12.5545956693
     C     3.9290703542    4.7401282542   12.5136658992
     C     3.4878040856    7.8513687323   15.9955494793
     C     4.3583250777    8.1935251375   17.0235256886
     C     5.7203161004    8.2999012565   16.7462217654
     C     6.1717248601    8.0173661537   15.4547444464
     C     5.2475986378    7.6632920207   14.4760894865
     C     2.0112574355    7.6779870524   16.1612056216
     C     2.0057559102    5.2525575249   15.6099470983
     C     0.0899340131    6.6657375431   14.8736369936
     H     1.3639332603    4.9724146764   11.5990196064
     H     0.2413109874    5.8962533940   10.5957536649
     H    -1.0177536127    8.0015423000   12.2888837809
     H     0.1765414785    8.1864236644   11.0295269784
     H    -1.1541177744    5.9939802776   13.2093882337
     H     0.2445999764    4.9755361451   13.5280489242
     H     1.4893267442    8.6126578655   15.9342767639
     H     1.7520546584    7.3924451041   17.1852175575
     H     1.1426310401    4.6674212732   15.9321224956
     H     2.6473262368    5.3536214403   16.4923644136
     H    -0.4806582115    6.1564195453   15.6539604217
     H    -0.2345454933    7.7111706302   14.8592464584
     H    -0.8738003804   10.6485578577   12.1901708101
     H     0.3568330896   12.6178081408   13.1388795118
     H     2.6040218146   12.2299284474   14.2000202362
     H     3.4757524815    9.9135128217   14.3520919358
     H     1.8540805040    6.2230261507    8.6044850670
     H     3.8371803641    7.4977632034    7.7700907191
     H     5.2655465705    8.7228048867    9.4440821989
     H     4.6983465009    8.5791431422   11.8627112337
     H     2.8737358626    2.6009684662   15.4873585135
     H     4.3017157928    1.6052238705   13.6998974624
     H     5.0273918438    3.0577156089   11.7665622481
     H     4.2067503785    5.3951395093   11.6957289044
     H     3.9808523519    8.3653399351   18.0260330898
     H     6.4199181283    8.5741084908   17.5312546539
     H     7.2238133739    8.0583748566   15.2036901468
     H     5.5585737838    7.4019532948   13.4690562488
