61
-1.4811789183433452e+03 frame 11   xyz file generated by TeraChem
    Co     2.5365633903    7.1762173795   13.6176523156
     N     1.4899448642    8.7655317181   13.4327142656
     N     0.8035099068    6.4515670449   14.5572779173
     N     1.4158751087    6.5368952685   11.9776855730
     N     3.5734391677    5.5826037916   13.7181612978
     N     3.3452458520    7.5063919423   15.4847576549
     N     4.2899136548    8.0555499282   13.0580014352
     C     0.2347783511    8.7893668671   13.8752633383
     C    -0.5584128933    9.9302911577   13.7196865453
     C    -0.0527409953   11.0468103802   13.0539705713
     C     1.2425631816   10.9987726296   12.5510428804
     C     1.9709577560    9.8489448262   12.7674649902
     C     0.4779883243    5.6246705057   12.2624093317
     C    -0.3362161216    5.1121806590   11.2291602306
     C    -0.1775636867    5.5395472744    9.9042375251
     C     0.7847171448    6.5015934036    9.6336692537
     C     1.5470314302    6.9686094312   10.6955351486
     C     0.4158185456    5.2496694424   13.7460734610
     C    -0.2698394763    7.4827076894   14.4157109334
     C     1.2591864267    6.2449783004   15.9333987087
     C     4.3327294922    5.3188554438   14.7535478224
     C     5.0841116504    4.1364069207   14.7793465386
     C     5.0579259600    3.2619982387   13.6861902465
     C     4.2903895948    3.5801170283   12.5699995127
     C     3.5688181640    4.7448517448   12.6410241363
     C     4.8357145555    8.8070211883   14.0048813452
     C     6.0344930711    9.4698114819   13.7016431714
     C     6.6201769901    9.3364487334   12.4307700744
     C     6.0343805198    8.5223602235   11.4661897155
     C     4.8638515534    7.8960384444   11.8412611575
     C     4.0325295687    8.8277382207   15.3184028439
     C     4.3600363382    6.4327398573   15.7628799295
     C     2.1631120542    7.4289713734   16.3676391184
     H     1.1267872424    4.4506299553   13.9540105441
     H    -0.5789833233    4.8645988219   13.9822718562
     H    -0.8168750397    7.6382495490   15.3421082866
     H    -1.0045454078    7.0989951147   13.6983091737
     H     0.4122639038    6.1304802446   16.6098842010
     H     1.8255261458    5.3147539541   15.9672379690
     H     3.2659264418    9.6016337399   15.2590551593
     H     4.6874554316    9.0821957647   16.1498784453
     H     4.2562212497    6.0365370354   16.7690720389
     H     5.3534878621    6.8845913739   15.7200482859
     H     2.4562065634    7.3239031633   17.4096280667
     H     1.6084001409    8.3636574451   16.2800985209
     H    -1.5755372738    9.9260492551   14.0839327260
     H    -0.6628753117   11.9297462717   12.9081190961
     H     1.6809136656   11.8221717369   11.9968873142
     H     2.9753281560    9.7670936578   12.3790798249
     H    -1.0991960112    4.3797731522   11.4555295377
     H    -0.7995120108    5.1430979691    9.1050632436
     H     0.9400534023    6.8847148431    8.6269394572
     H     2.3017358675    7.7261690504   10.5172876462
     H     5.7034608921    3.9176206857   15.6332159625
     H     5.6430168186    2.3514757930   13.6898757101
     H     4.2473325781    2.9597213051   11.6784251114
     H     2.9537161174    5.0448518852   11.8029229302
     H     6.5123543290   10.0877201697   14.4446757296
     H     7.5410863752    9.8564066094   12.1928570049
     H     6.4581976997    8.3758153361   10.4749343563
     H     4.3473668517    7.2392198784   11.1452949114
