61
-1.4810703763644669e+03 frame 14   xyz file generated by TeraChem
    Co     2.5592527123    7.1778982185   13.5284522234
     N     3.4629021172    8.9067190817   13.3491006484
     N     1.6781914999    7.9602050379   15.1055047968
     N     1.0199042733    7.9888062118   12.6077911994
     N     1.6565423048    5.4363292016   13.6393281211
     N     3.9078117655    6.3862998268   14.7288942843
     N     3.7034505951    6.3602652578   12.1511682743
     C     3.0961015701    9.8199595409   14.2695223150
     C     3.6642091594   11.0897309413   14.3009554158
     C     4.6009973308   11.4390424626   13.3349910592
     C     4.9328961307   10.5086158643   12.3488124307
     C     4.3448448936    9.2554637873   12.3871236844
     C    -0.0296476610    8.1830087339   13.4495880075
     C    -1.2132512776    8.7475846927   12.9978850539
     C    -1.3159886523    9.1228450930   11.6578141263
     C    -0.2197016661    8.9532698692   10.8141045118
     C     0.9415094326    8.3903501608   11.3289673413
     C     0.2180790595    7.7745889932   14.8799484074
     C     1.9892699649    9.4286898893   15.1931470223
     C     2.2561496269    7.2316490212   16.2802845849
     C     2.2973501722    4.5205457858   14.3915143502
     C     1.7807447809    3.2433948751   14.5881962795
     C     0.5950151853    2.8923373638   13.9529687448
     C    -0.0343383599    3.8245115609   13.1262729985
     C     0.5230330491    5.0855139963   12.9943313067
     C     4.9678717796    6.1467234505   12.5988046215
     C     5.9266237111    5.5737735313   11.7759968988
     C     5.5788310359    5.2112763277   10.4738510933
     C     4.2684887831    5.4038086582   10.0399428263
     C     3.3517605775    5.9737546565   10.9147106198
     C     5.2136955882    6.5543829573   14.0304483543
     C     3.6352974318    4.9196159505   14.9221535250
     C     3.7533853844    7.1149052800   16.0283257735
     H    -0.0347679023    6.7268511505   15.0518994911
     H    -0.3642770371    8.3822934186   15.5778450045
     H     2.2176163400    9.6933426953   16.2281455060
     H     1.0955184581    9.9919437419   14.9113743198
     H     2.0441707890    7.7729061682   17.2054481457
     H     1.7800326246    6.2519219146   16.3390152434
     H     5.5240123368    7.5983045458   14.1006245816
     H     5.9881747987    5.9399722855   14.4977348776
     H     3.7405048469    4.6652000466   15.9791639577
     H     4.3973066807    4.3501982689   14.3833256890
     H     4.2550291329    6.5695584139   16.8320255470
     H     4.2263407051    8.0941161563   15.9420746730
     H     3.3561998964   11.7889310373   15.0704053827
     H     5.0552772477   12.4241152818   13.3419838803
     H     5.6387253011   10.7408325374   11.5600728158
     H     4.5730453603    8.5097635795   11.6407074133
     H    -2.0312260082    8.9011100765   13.6928019935
     H    -2.2344643617    9.5631752411   11.2845777303
     H    -0.2500944796    9.2556376035    9.7739377285
     H     1.8234639182    8.2581033282   10.7161855133
     H     2.3180825934    2.5422343392   15.2171657618
     H     0.1736595201    1.9019981243   14.0888252648
     H    -0.9468549519    3.5888026486   12.5915375109
     H     0.0609310787    5.8326322055   12.3666410566
     H     6.9262462025    5.4056867084   12.1604044955
     H     6.3170479365    4.7649420286    9.8160520324
     H     3.9499097652    5.1145558009    9.0453803139
     H     2.3194497090    6.1231366730   10.6280352695
