61
-1.5054759239778573e+03 frame 10   xyz file generated by TeraChem
    Ni     2.5313077324    7.1938036236   13.3130853095
     N     2.2456732054    9.2456122401   13.7177305312
     N     1.2371586429    7.0098503962   15.0140778182
     N     0.6370153858    7.0824002225   12.3573546729
     N     2.8223242010    5.1208560758   13.0606668813
     N     4.0986365153    6.9195738173   14.7403453677
     N     4.2252853818    7.6064178793   12.1162107760
     C     1.4331727170    9.4998953293   14.7570703224
     C     1.2294108825   10.8015015908   15.2180698465
     C     1.8613280869   11.8552643945   14.5640881729
     C     2.6817637813   11.5931861641   13.4645017822
     C     2.8470993229   10.2691278819   13.0829152953
     C    -0.2948862123    6.5363790053   13.1672856847
     C    -1.6117368442    6.3717872293   12.7457732727
     C    -1.9676610890    6.7740412941   11.4580577124
     C    -1.0045046637    7.3471875603   10.6279673723
     C     0.2871953356    7.4850043585   11.1267617978
     C     0.1689964696    6.1030629358   14.5442177773
     C     0.6815937788    8.3394869559   15.3647286591
     C     2.0956895983    6.4551488292   16.0871125526
     C     3.7964276685    4.5994734907   13.8230030634
     C     4.0605070067    3.2285193135   13.8318526754
     C     3.3129813090    2.3933212790   13.0066897033
     C     2.3206329357    2.9363663802   12.1875832692
     C     2.1125166520    4.3065313727   12.2560940924
     C     5.3119250403    7.9016391189   12.8632209511
     C     6.5485750621    8.1809488914   12.2873973546
     C     6.6544646635    8.1591602515   10.8975313207
     C     5.5330779225    7.8450253767   10.1290423484
     C     4.3350439061    7.5686218292   10.7792617850
     C     5.1045556841    7.9334972091   14.3622713716
     C     4.6562342025    5.5497534700   14.6220397280
     C     3.4557035197    7.1490113016   16.0562294620
     H     0.5842065745    5.0929091673   14.4877765345
     H    -0.6793914063    6.0735547153   15.2384409230
     H     0.6257105160    8.4527832361   16.4529625900
     H    -0.3483586275    8.3915423766   14.9964260474
     H     1.6300965572    6.5805100419   17.0719536402
     H     2.2140284207    5.3834994539   15.9094056665
     H     4.7239412189    8.9152181021   14.6573214659
     H     6.0582466697    7.7760144629   14.8800178436
     H     4.8499638247    5.1321684907   15.6162063012
     H     5.6278588230    5.6103587494   14.1207613740
     H     4.0870228186    6.7766480241   16.8721427925
     H     3.3368043513    8.2256720909   16.1957943706
     H     0.5821001498   10.9744335903   16.0718806072
     H     1.7150720436   12.8742355043   14.9078486675
     H     3.1861773468   12.3861199362   12.9231029435
     H     3.4841973153   10.0013542876   12.2488283238
     H    -2.3425087315    5.9408731860   13.4220933906
     H    -2.9891741710    6.6522221468   11.1120492507
     H    -1.2420624300    7.6846665133    9.6250212676
     H     1.0750454733    7.9311553405   10.5291950843
     H     4.8437134357    2.8360813941   14.4726407885
     H     3.5042567694    1.3251011592   12.9990214510
     H     1.7222190473    2.3221981771   11.5232622990
     H     1.3478060053    4.7819190468   11.6547292247
     H     7.4030987991    8.4034624873   12.9181017644
     H     7.6054779034    8.3741057444   10.4207150860
     H     5.5811455136    7.8073729329    9.0465068503
     H     3.4361408880    7.3104946736   10.2298469215
