53
-1.5282947427538952e+03 frame 77   xyz file generated by TeraChem
    Fe    13.4701340481    2.8405751458   -0.6034420308
     N    12.6645673608    0.6024932018    1.0531933979
     N    13.6114101147    1.5585730881    0.9000372295
     N    12.0170192921    0.4460725880   -1.2569652296
     N    12.9604304766    1.3326470678   -1.6932060952
     N    10.8051109541    2.0230671539    0.1870173323
     N    11.5801651338    3.0976681626   -0.1222202324
     N    14.9090865256    5.2086886926    0.3010985978
     N    13.9640976807    4.2993092255    0.6153079011
     N    16.1561086411    3.6967827236   -1.2033460485
     N    15.3796656206    2.5978663106   -1.0011546406
     N    14.3154709659    5.1744691344   -2.0462775450
     N    13.3437401245    4.2192445158   -2.0356325980
     C    15.1074599218    6.0301767084    1.3559508135
     H    15.8296253121    6.8318498261    1.3057828871
     C    14.2652584891    5.6309061456    2.3934953684
     H    14.1690557394    6.0709132892    3.3766715067
     C    13.5634014364    4.5339370226    1.8795794835
     H    12.8117541973    3.9095245927    2.3404024947
     C    17.4334380195    3.3037399836   -1.3880261359
     H    18.2109242039    4.0370027075   -1.5435250993
     C    17.4868238495    1.9163276315   -1.2989475887
     H    18.3577492862    1.2840447601   -1.3823059891
     C    16.1664658324    1.5157570884   -1.0580340392
     H    15.7511649401    0.5296262528   -0.9107728139
     C    13.9243775290    6.1853166395   -2.8394295678
     H    14.5586985506    7.0510942087   -2.9619857756
     C    12.6726660204    5.8753646057   -3.3596332053
     H    12.0831012935    6.4732076972   -4.0362906641
     C    12.3547466896    4.6143218111   -2.8353277302
     H    11.4693182238    4.0076464322   -2.9496342693
     C    13.0894004969   -0.3204954832    1.9346312365
     H    12.4704567706   -1.1703963350    2.1851921786
     C    14.3522983894    0.0539075643    2.3794667890
     H    14.9666516032   -0.4558629013    3.1082251087
     C    14.6356613589    1.2497244322    1.7093897126
     C    11.7846424206   -0.4615032596   -2.2183527375
     H    11.0681789500   -1.2523373288   -2.0482154344
     C    12.5891982500   -0.1615154765   -3.3145724048
     H    12.6502118717   -0.6995907252   -4.2465945107
     C    13.3080071872    0.9804061929   -2.9372829242
     C     9.5504619088    2.4360172709    0.4585676186
     H     8.7844820242    1.7207956144    0.7223727220
     C     9.5088317383    3.8204679809    0.3380141262
     H     8.6591950983    4.4681943976    0.4951116665
     C    10.8093704854    4.1921863175   -0.0276388352
     B    11.4286861953    0.6194462723    0.1479195868
     H    10.6479314927   -0.2357660147    0.4376775841
     B    15.5269687461    5.1039698488   -1.1041337868
     H    16.3191854823    5.9760684624   -1.2891625447
     H    11.2236923103    5.1708346298   -0.2164875788
     H    15.5152980737    1.8738795529    1.7505400643
     H    14.0463048747    1.5605785508   -3.4691067452
