53
-1.5501331102727286e+03 frame 13   xyz file generated by TeraChem
    Co    13.4785960211    2.8583389181   -0.0410734266
     N    12.2966712257    0.2926508035    1.1754034299
     N    13.3842728304    1.0954639550    1.2730862695
     N    12.0504634533    0.5833314551   -1.2092221293
     N    13.0399946655    1.4842869237   -1.4283311207
     N    10.7042468581    2.0464014136    0.2882442026
     N    11.5410971288    3.1155238218    0.2338953694
     N    14.9024540394    5.1312852031    1.1281713736
     N    13.9160225738    4.2267626217    1.3467692348
     N    16.2533486104    3.6709004120   -0.3659009374
     N    15.4170256507    2.6011311459   -0.3145718808
     N    14.6580353592    5.4180735810   -1.2583276097
     N    13.5747881054    4.6098942435   -1.3598398708
     C    14.9760908957    6.0047766091    2.1428611449
     H    15.6951754805    6.8110086633    2.1203399700
     C    14.0145455467    5.6509418913    3.0839236676
     H    13.7996294611    6.1463969583    4.0192509069
     C    13.3855947260    4.5167513190    2.5437238875
     H    12.5679148185    3.9258293794    2.9298373742
     C    17.5256578274    3.2461576354   -0.5325263803
     H    18.3371753648    3.9570566027   -0.5895590693
     C    17.5187920974    1.8579592249   -0.5912127147
     H    18.3665485752    1.1993478321   -0.7100566402
     C    16.1677175487    1.5020711945   -0.4515563538
     H    15.7042218493    0.5270718725   -0.4287573802
     C    14.5828346754    6.4185449451   -2.1680215997
     H    15.3671105418    7.1582733339   -2.2429865698
     C    13.3890941697    6.2741812085   -2.8602965861
     H    13.0103687125    6.9004908683   -3.6554648887
     C    12.7991755372    5.1183839402   -2.3135220490
     H    11.8663572172    4.6326369965   -2.5681336536
     C    12.3698480613   -0.7083250701    2.0846286880
     H    11.5821817736   -1.4442137561    2.1619010239
     C    13.5665409115   -0.5698981679    2.7730032375
     H    13.9447691615   -1.1982115309    3.5668211526
     C    14.1602278502    0.5831886292    2.2245230726
     C    11.9745747222   -0.2912016739   -2.2229630261
     H    11.2533566439   -1.0955088463   -2.1996650244
     C    12.9376697720    0.0583885203   -3.1639852414
     H    13.1516267324   -0.4390440417   -4.0984994436
     C    13.5698904026    1.1912747580   -2.6247553908
     C     9.4328479686    2.4721516601    0.4595703567
     H     8.6210580632    1.7618408763    0.5197672293
     C     9.4408970068    3.8603459784    0.5177754951
     H     8.5940945497    4.5196223101    0.6396672674
     C    10.7916666856    4.2152005103    0.3729544002
     B    11.2528339164    0.6188656988    0.1067419996
     H    10.3606090431   -0.1825789290    0.1000188635
     B    15.7010069229    5.0974738459   -0.1871492209
     H    16.5901788559    5.9022467393   -0.1804421688
     H    11.2558334099    5.1898602439    0.3487697818
     H    15.0959639558    1.0645477090    2.4767660179
     H    14.3894560236    1.7792778634   -3.0113853401
