53
-1.5743732082489619e+03 frame 13   xyz file generated by TeraChem
    Ni    13.4778379470    2.8559084566   -0.0401759689
     N    12.2892362709    0.3879287663    1.1944299307
     N    13.3184827449    1.2614619967    1.3541774599
     N    11.9996276714    0.5664121408   -1.2897331180
     N    13.0157555602    1.4375969711   -1.5142543667
     N    10.6211337906    1.9913860683    0.2349092985
     N    11.4097861984    3.0964873269    0.2367331809
     N    14.9562381595    5.1455969917    1.2090734546
     N    13.9401977385    4.2743600285    1.4337011013
     N    16.3346525242    3.7206852574   -0.3156756255
     N    15.5460175742    2.6155917732   -0.3176492919
     N    14.6664811156    5.3240764429   -1.2751339651
     N    13.6373194693    4.4504617505   -1.4348564330
     C    15.1574295240    5.9085845412    2.3070325024
     H    15.9313688274    6.6627005463    2.3177669541
     C    14.2407242268    5.5234569071    3.2782738501
     H    14.1267618288    5.9291979953    4.2729554304
     C    13.4996275423    4.4916555667    2.6758033511
     H    12.6830538279    3.9012814032    3.0678428891
     C    17.6289127399    3.3624874491   -0.4705990611
     H    18.4074356950    4.1115808690   -0.4932270701
     C    17.6872005458    1.9780366067   -0.5780498299
     H    18.5665164717    1.3647762987   -0.7108687952
     C    16.3492542506    1.5590464912   -0.4754408571
     H    15.9308828703    0.5623968300   -0.5086401930
     C    14.5803051018    6.3111291200   -2.1945111075
     H    15.3177361047    7.1007101762   -2.2208056845
     C    13.4589950543    6.0760210162   -2.9807116831
     H    13.1004607720    6.6716518926   -3.8073993816
     C    12.9027797172    4.8941484855   -2.4582578327
     H    12.0210830465    4.3476612155   -2.7634385010
     C    12.3752548430   -0.5991281309    2.1138133898
     H    11.6377720524   -1.3886606197    2.1401299654
     C    13.4965530606   -0.3640916749    2.9000437675
     H    13.8549736224   -0.9597612581    3.7267511778
     C    14.0529243638    0.8177208696    2.3776288758
     C    11.7984199849   -0.1966498860   -2.3876442641
     H    11.0244526125   -0.9507372896   -2.3985266733
     C    12.7152597813    0.1884096279   -3.3587709968
     H    12.8292496618   -0.2174049476   -4.3534178632
     C    13.4564012182    1.2201918610   -2.7563023780
     C     9.3268481311    2.3495657595    0.3896720649
     H     8.5482710807    1.6005291836    0.4123732953
     C     9.2685907377    3.7340300865    0.4969012924
     H     8.3892423486    4.3472751617    0.6295653063
     C    10.6065337181    4.1530457451    0.3943239763
     B    11.2564566458    0.5939156974    0.0651744414
     H    10.4141581925   -0.2594358358    0.1007445243
     B    15.6993085703    5.1181325502   -0.1459223999
     H    16.5415890720    5.9715047058   -0.1815247183
     H    11.0248903572    5.1497060698    0.4273851871
     H    14.9346569661    1.3641205660    2.6828661644
     H    14.2730523669    1.8104719770   -3.1483241725
