59
-1.5889817524037962e+03 frame 9   xyz file generated by TeraChem
    Mn     2.9701713583    4.7040437443    7.5970855753
     N     5.2204875703    4.8565039308    7.7601638607
     N     3.7376149223    5.6946465700    5.7562197322
     N     1.1995877348    5.1736340145    6.3079556406
     C     5.8974182201    4.3897679626    8.8154611989
     C     7.2872721108    4.4525065091    8.8986200304
     C     7.9895647208    5.0198335828    7.8361420630
     C     7.2865116595    5.5099876839    6.7357725212
     C     5.8926595041    5.4166084338    6.7301669535
     C     5.0535112839    5.9189980450    5.6140376086
     C     5.5530938825    6.5862917005    4.4913205973
     C     4.6498646629    7.0115168584    3.5191555653
     C     3.2864972574    6.7676275361    3.6737354628
     C     2.8584569226    6.0934291630    4.8212306548
     C     1.4375853178    5.7710396019    5.1178704631
     C     0.3923582280    6.0603047806    4.2385072778
     C    -0.9146558605    5.7360684845    4.6036752428
     C    -1.1502982903    5.1307833613    5.8373321507
     C    -0.0557347766    4.8654020046    6.6582697287
     N     2.6379718592    6.4612731973    8.9803689767
     N     2.3344089539    3.8848585387    9.5211530190
     N     2.9092741790    2.4876236442    7.3637162300
     C     2.8551760935    7.7335220298    8.6287971608
     C     2.6871563108    8.7910052385    9.5217207112
     C     2.2813955880    8.5041336212   10.8246777359
     C     2.0574663048    7.1776875412   11.1940236038
     C     2.2458136748    6.1736249794   10.2408171727
     C     2.0407897922    4.7297241172   10.5262086093
     C     1.5679811302    4.2395168864   11.7448939209
     C     1.4042434329    2.8630983636   11.8946472756
     C     1.7076953798    2.0019324998   10.8414163580
     C     2.1781883305    2.5533115216    9.6461631824
     C     2.5342007090    1.7581586781    8.4407763490
     C     2.4989393845    0.3612673396    8.3985162220
     C     2.8590520995   -0.2873039401    7.2181276911
     C     3.2458675542    0.4700479468    6.1136727305
     C     3.2559598966    1.8583165613    6.2348541188
     H     5.3021328527    3.9532955943    9.6117685961
     H     7.7974568554    4.0636096819    9.7728058269
     H     9.0729286372    5.0822105619    7.8588367526
     H     7.8198873525    5.9510826381    5.9028073067
     H     6.6120386284    6.7780434313    4.3725379451
     H     5.0092111408    7.5364921737    2.6402197555
     H     2.5838457947    7.1011677042    2.9200712191
     H     0.5876447854    6.5290003857    3.2816825292
     H    -1.7359923415    5.9554121490    3.9289056612
     H    -2.1511746549    4.8663355328    6.1599651825
     H    -0.1793249647    4.3895004958    7.6261384098
     H     3.1713000178    7.9014797501    7.6034020324
     H     2.8720716796    9.8091116922    9.1979919821
     H     2.1417412331    9.2999930679   11.5494543413
     H     1.7482318589    6.9391409107   12.2043145543
     H     1.3243557970    4.9076790480   12.5610031477
     H     1.0350673644    2.4611695565   12.8325682710
     H     1.5734469003    0.9337671168   10.9544312651
     H     2.2017416965   -0.2150434114    9.2659309554
     H     2.8383758534   -1.3712339962    7.1668440604
     H     3.5343656772    0.0034773664    5.1784439070
     H     3.5490398340    2.4964237182    5.4067034030
