59
-1.5887488174987293e+03 frame 4   xyz file generated by TeraChem
    Mn     3.0487820190    4.7711891957    7.5840530685
     N     1.2248612648    4.4951055934    6.7967938077
     N     3.1065986059    2.8586857000    7.3327758056
     N     4.8900641238    4.4142480163    8.3279238902
     C     0.3127509347    5.4485300226    6.5613647948
     C    -0.9756652150    5.1376345016    6.1370443567
     C    -1.3124219214    3.8013540228    5.9338726348
     C    -0.3486971348    2.8109932814    6.1317859107
     C     0.9183036114    3.1840418129    6.5612593574
     C     2.0191656017    2.2426208021    6.8329335493
     C     2.0310078988    0.8595931109    6.6623915355
     C     3.1912736646    0.1620684107    7.0105151618
     C     4.3101523771    0.8263943255    7.5193109221
     C     4.2315602601    2.2063659957    7.6906007755
     C     5.2610297121    3.1016539628    8.2508638979
     C     6.5108687028    2.6846197973    8.6962639684
     C     7.3887340499    3.6280662552    9.2331853197
     C     6.9922932641    4.9604309360    9.3204978691
     C     5.7295696685    5.3176142366    8.8562385502
     N     2.1751396945    4.8521053659    9.4468811225
     N     2.9839626439    6.6984638185    7.8504335571
     N     3.8712293309    5.3524020148    5.8994433790
     C     1.8229974374    3.8235192552   10.2353389674
     C     1.1698871840    4.0235433433   11.4449691434
     C     0.8760494955    5.3242492985   11.8468253710
     C     1.2635043351    6.3923165284   11.0367898226
     C     1.9357737849    6.1320118051    9.8560569965
     C     2.4306074020    7.1884801480    8.9702422519
     C     2.3644152980    8.5677221669    9.1728266354
     C     2.8946892500    9.4037045806    8.1844026286
     C     3.4909744367    8.8706885285    7.0438881692
     C     3.5027231483    7.4850835807    6.8982547560
     C     4.0354268400    6.7043130456    5.7856788068
     C     4.6427710028    7.2573370074    4.6691592295
     C     5.0659383028    6.4130301860    3.6454532505
     C     4.8553874335    5.0400671202    3.7507399193
     C     4.2597060531    4.5399828026    4.9021394222
     H     0.6114947852    6.4698378519    6.7615045184
     H    -1.6960405504    5.9339174002    5.9920892754
     H    -2.3153690465    3.5257757839    5.6266474193
     H    -0.5878059615    1.7649752076    5.9823156938
     H     1.1636630539    0.3358428055    6.2808925338
     H     3.2219710134   -0.9154059044    6.8912156270
     H     5.2044189699    0.2798311025    7.7927379401
     H     6.7952733540    1.6415481615    8.6274262099
     H     8.3694638526    3.3200605605    9.5802012410
     H     7.6441355125    5.7207799140    9.7351548291
     H     5.3796938389    6.3416249512    8.8985606895
     H     2.0610370008    2.8300488232    9.8757755423
     H     0.9031554937    3.1694262012   12.0568506367
     H     0.3663427662    5.5117239585   12.7864826242
     H     1.0649709909    7.4121271468   11.3433958062
     H     1.9138475495    8.9826762470   10.0658768890
     H     2.8555339053   10.4790238821    8.3198636885
     H     3.9138742317    9.5163258047    6.2850301419
     H     4.7758143641    8.3293838523    4.5954987058
     H     5.5371608104    6.8294626122    2.7621345456
     H     5.1532845442    4.3546436097    2.9668211899
     H     4.0946040595    3.4790473526    5.0384261482
