26
-4.6553239192189778e+02 frame 63   xyz file generated by TeraChem
     C    -0.1697792472    0.0926318645   -0.0974986428
     C    -1.4722258744   -0.4028414951   -0.1137816349
     C    -1.6560976398   -1.8279571049   -0.0716102425
     C    -0.5794916568   -2.7069178184    0.0276308190
     C     0.7050123304   -2.1947487768    0.0703034943
     C     0.9347468796   -0.7768464026    0.0010289126
     C     2.3003519118   -0.3377520007    0.0323106657
     H     3.0551686742   -1.1184525168    0.0954448455
     C     2.7261062410    0.9631973633   -0.0037695303
     H     1.9972884325    1.7686503647   -0.0631499267
     C     4.1509815130    1.3680177863    0.0339921094
     H     4.8271564578    0.5125344785    0.1031558271
     H     4.3248242283    2.0417237619    0.8853044192
     H     4.3948247155    1.9549973714   -0.8632861065
     H     1.5613250246   -2.8572302298    0.1480777830
     H    -0.7496611916   -3.7771356220    0.0650171988
     H    -2.6681951330   -2.2191829844   -0.1120495459
     C    -2.6804090728    0.3976042493   -0.1863381681
     C    -2.8443223698    1.7278095156    0.0366087250
     C    -1.8290758152    2.7420205397    0.4526605327
     H    -1.2497196325    3.0931552888   -0.4142813615
     H    -1.1129281640    2.3409062647    1.1779076272
     H    -2.3197214943    3.6157491576    0.8892418472
     H    -3.8585277255    2.1008266734   -0.0913120658
     H    -3.5779886495   -0.1680565156   -0.4252587264
     H     0.0055071578    1.1536654872   -0.1877647554
