26
-4.6573552735540136e+02 frame 54   xyz file generated by TeraChem
     C    -0.1766636783    0.0444732020   -0.1853640753
     C    -1.4936960176   -0.4380034732   -0.1401315900
     C    -1.6883712722   -1.8269286688    0.0089689605
     C    -0.6030236160   -2.6885699320    0.1381050901
     C     0.6981738866   -2.1858765422    0.1200974632
     C     0.9304440676   -0.8089040108   -0.0381179713
     C     2.3167687899   -0.3163199011   -0.0521064899
     H     3.0803103193   -1.0909014976   -0.1338892041
     C     2.7159681381    0.9602924005    0.0542816811
     H     1.9737800737    1.7503619231    0.1687532313
     C     4.1476467427    1.4045015582    0.0444380269
     H     4.8309943463    0.5570956258   -0.0739611821
     H     4.4044529174    1.9278780567    0.9756797119
     H     4.3352068080    2.1153873694   -0.7719036575
     H     1.5445316259   -2.8602304987    0.2233775395
     H    -0.7695408207   -3.7565033482    0.2500885329
     H    -2.7008843890   -2.2221839993    0.0204683089
     C    -2.6838470650    0.4165159744   -0.2770528148
     C    -2.8272981689    1.7320124092   -0.0340537605
     C    -1.8061697646    2.7109532506    0.4735651553
     H    -1.2662905486    3.1965977806   -0.3517726180
     H    -1.0573815243    2.2355711799    1.1150954259
     H    -2.2948646197    3.5068581598    1.0458131293
     H    -3.8171832001    2.1489324174   -0.2163322871
     H    -3.5764800223   -0.1211881959   -0.5959535407
     H    -0.0014331084    1.0945474603   -0.3795089658
