59
-1.6082484179489893e+03 frame 9   xyz file generated by TeraChem
    Fe     3.0475658429    4.8145291918    7.5008420271
     N     1.2061650759    5.0259077573    6.9901322338
     N     3.1328650582    3.7755911260    5.9211464629
     N     4.8914548492    4.0583592928    7.7933419015
     C     0.2781850189    5.7097182292    7.6773074659
     C    -1.0284418477    5.8177413978    7.2138125692
     C    -1.3615559252    5.2096636025    6.0021793284
     C    -0.3913478965    4.5117202546    5.2770210614
     C     0.8979432551    4.4319777995    5.7911957498
     C     2.0273477923    3.7225655457    5.1602317374
     C     2.0524949512    3.0044965209    3.9642866327
     C     3.2437097586    2.3503359842    3.6244157508
     C     4.3647355227    2.3901807385    4.4631748845
     C     4.2737681161    3.1248883062    5.6492073852
     C     5.2762240460    3.2820260866    6.7222971999
     C     6.5365164142    2.6941609878    6.7048706550
     C     7.3977166406    2.9076539613    7.7832519869
     C     6.9901513307    3.7029131524    8.8565866477
     C     5.7193993021    4.2717886635    8.8261047704
     N     2.3539196134    3.4782114483    8.7893791306
     N     2.9478999251    5.8550490702    9.1329829167
     N     3.7213958819    6.6106840447    6.9375774212
     C     2.0719630636    2.2087463917    8.4524809375
     C     1.5801396068    1.3070609264    9.3877197530
     C     1.3792654443    1.7373285417   10.6985969608
     C     1.6743707419    3.0562020755   11.0432190636
     C     2.1625003052    3.8984371767   10.0592226497
     C     2.5098056347    5.2804042456   10.2703243299
     C     2.4175581224    5.9905488606   11.4686332764
     C     2.7914602053    7.3325200587   11.4897258468
     C     3.2521317734    7.9266633625   10.3225264502
     C     3.3138315359    7.1477830250    9.1670503035
     C     3.7762550621    7.5859841588    7.8772972151
     C     4.2338002139    8.8639232685    7.6010261579
     C     4.6500555797    9.1502898044    6.3070035519
     C     4.5910707164    8.1565401202    5.3329612970
     C     4.1192428159    6.8977914955    5.6880047288
     H     0.5896577611    6.1665514225    8.6079441923
     H    -1.7595792059    6.3681760832    7.7943069751
     H    -2.3737325103    5.2776581070    5.6183992590
     H    -0.6371981072    4.0352864790    4.3354367751
     H     1.1794454969    2.9400677734    3.3264070461
     H     3.2918114067    1.7802145369    2.7032673176
     H     5.2703921703    1.8550395951    4.2037244744
     H     6.8428556795    2.0787106137    5.8671982884
     H     8.3836032895    2.4547865991    7.7827562408
     H     7.6400745434    3.8880465958    9.7042204543
     H     5.3592382733    4.9035166715    9.6282643395
     H     2.2420888190    1.9194465298    7.4235709449
     H     1.3622018193    0.2886319521    9.0874558970
     H     0.9975560236    1.0537803711   11.4499585836
     H     1.5287243559    3.4137164097   12.0558980939
     H     2.0591863887    5.5086664085   12.3705561944
     H     2.7276073001    7.9036649366   12.4095386049
     H     3.5552779646    8.9662301477   10.3136719145
     H     4.2651219954    9.6181448758    8.3783875415
     H     5.0133617154   10.1423702552    6.0618139801
     H     4.9037617440    8.3429906139    4.3124773927
     H     4.0589184293    6.0968242488    4.9617071492
