59
-1.6299451086895770e+03 frame 12   xyz file generated by TeraChem
    Co     3.0129099899    4.7760680111    7.6368828890
     N     1.6108756724    3.8150843987    6.6762747913
     N     4.0316984730    3.2733981132    7.1843793807
     N     4.6896041304    5.3371687052    8.4819614746
     C     0.3525173828    4.2227440841    6.4767308264
     C    -0.5620535953    3.4453424863    5.7702817182
     C    -0.1518098822    2.2163373924    5.2624471197
     C     1.1607270099    1.7930644749    5.4716935128
     C     2.0276467557    2.6118859984    6.1844031558
     C     3.4322516917    2.2992603340    6.4785904297
     C     4.1638849634    1.1685348157    6.1191817931
     C     5.5022686752    1.0988738572    6.5126024144
     C     6.0974530186    2.1272698688    7.2467742581
     C     5.3158533041    3.2321835104    7.5789641286
     C     5.6992732286    4.4309509064    8.3350573575
     C     6.9592747253    4.6674041736    8.8701038674
     C     7.1861193047    5.8546886873    9.5662733012
     C     6.1463046236    6.7687075042    9.7073263687
     C     4.9037134556    6.4760226795    9.1500367980
     N     2.3422308476    4.1327806958    9.3533516523
     N     2.0238457175    6.2993044541    8.0787588087
     N     3.4253268156    5.8234242819    6.0332954313
     C     2.5950699090    2.9472322361    9.9189273811
     C     2.0604059204    2.6038785681   11.1582537551
     C     1.2457495123    3.5183328093   11.8195168198
     C     0.9842231655    4.7545715398   11.2281534926
     C     1.5464506434    5.0406260797    9.9905130494
     C     1.3625617538    6.2954214693    9.2486637801
     C     0.6201772012    7.4174566902    9.6121091734
     C     0.5951600311    8.5053156214    8.7360887923
     C     1.2931258453    8.4755128120    7.5265897860
     C     2.0191054010    7.3278671186    7.2140929590
     C     2.8314997539    7.0529065415    6.0220436936
     C     3.0103346347    7.9299253221    4.9594548993
     C     3.8159210319    7.5377304806    3.8904516771
     C     4.4184582148    6.2836113645    3.9163067191
     C     4.2006407087    5.4484848468    5.0094010532
     H     0.0712565040    5.1835730761    6.8869570814
     H    -1.5724732773    3.8105646062    5.6298995404
     H    -0.8418577420    1.5894095070    4.7084916178
     H     1.5063934567    0.8415321162    5.0866254022
     H     3.7103554937    0.3666645764    5.5499587211
     H     6.0909959158    0.2291783946    6.2429927477
     H     7.1362790576    2.0672732981    7.5469597336
     H     7.7487431706    3.9360243533    8.7462696525
     H     8.1633584367    6.0573432710    9.9906472680
     H     6.2804250540    7.7023832290   10.2404644921
     H     4.0754749255    7.1662437784    9.2417398295
     H     3.2312569126    2.2631532991    9.3728520736
     H     2.2877501200    1.6337209443   11.5839275616
     H     0.8158761638    3.2774197958   12.7855898674
     H     0.3537696715    5.4850702075   11.7206377946
     H     0.0768537848    7.4468161902   10.5483085331
     H     0.0244440177    9.3887747777    8.9999002190
     H     1.2713120193    9.3221720898    6.8518886518
     H     2.5288154436    8.9005470720    4.9671908998
     H     3.9683549099    8.2073527251    3.0510944308
     H     5.0521087175    5.9409665460    3.1069235462
     H     4.6536463088    4.4673512125    5.0588417271
