59
-1.6300715268788854e+03 frame 13   xyz file generated by TeraChem
    Co     3.0784593076    4.6777244142    7.7054848376
     N     2.4340078151    3.0120049658    6.7565337233
     N     4.6013395939    3.5536777449    7.8742220600
     N     4.3529437973    5.8558168814    8.6398823268
     C     1.2295932970    2.8611546932    6.1910399000
     C     0.8464133348    1.6811745310    5.5654729508
     C     1.7457776938    0.6202338536    5.5256323940
     C     2.9983173102    0.7726180807    6.1106987240
     C     3.3130733349    1.9821255070    6.7190186215
     C     4.5737891370    2.2950171137    7.3679585887
     C     5.6760310922    1.4517068742    7.4891183569
     C     6.8200884900    1.9064162158    8.1327185184
     C     6.8500024878    3.1975737851    8.6412612347
     C     5.7218682838    3.9972802484    8.4935210893
     C     5.5775196711    5.3635798382    8.9457648207
     C     6.5442218993    6.1133030673    9.6074843382
     C     6.2534306914    7.4213884878    9.9751881427
     C     4.9993958207    7.9342780400    9.6660289984
     C     4.0883086436    7.1211300988    9.0033917824
     N     1.8759818358    4.2278211013    9.6009141330
     N     1.5312572210    5.8733056488    7.5338118198
     N     3.4997363492    5.7076581155    5.7502408955
     C     2.1360207735    3.3927822525   10.6086206180
     C     1.2875310007    3.2642137010   11.7009673914
     C     0.1343946888    4.0412270745   11.7316981351
     C    -0.1345280259    4.9139056834   10.6841056032
     C     0.7621537785    4.9870874676    9.6216454901
     C     0.5614201751    5.8882313454    8.4726761860
     C    -0.5557734704    6.7140887032    8.3342537716
     C    -0.6688483697    7.5318264431    7.2174659395
     C     0.3319521029    7.5140623385    6.2622121798
     C     1.4275411078    6.6729716254    6.4435252058
     C     2.5300930157    6.5958976542    5.4674439834
     C     2.5924012650    7.3829735068    4.3164060016
     C     3.6771913037    7.2312082452    3.4630876732
     C     4.6727342020    6.3078828133    3.7659894676
     C     4.5393094396    5.5644025059    4.9321325903
     H     0.5607108546    3.7088256556    6.2477029074
     H    -0.1381929813    1.6039405685    5.1234782252
     H     1.4780410037   -0.3132130597    5.0471170318
     H     3.7164738275   -0.0363880317    6.0942831960
     H     5.6446851272    0.4494082365    7.0841284959
     H     7.6830225192    1.2607664242    8.2328463621
     H     7.7335340443    3.5723810999    9.1401724500
     H     7.5107494567    5.6819955898    9.8320768873
     H     6.9904486632    8.0240727078   10.4911519084
     H     4.7219145282    8.9463468108    9.9306493041
     H     3.1038737484    7.4897430515    8.7504645542
     H     3.0492842229    2.8131295112   10.5311587417
     H     1.5266661873    2.5762914902   12.5020581562
     H    -0.5523188548    3.9728206309   12.5668099886
     H    -1.0282731524    5.5215643754   10.7122854054
     H    -1.3328625308    6.7182817854    9.0850826391
     H    -1.5314501995    8.1746807760    7.0960233476
     H     0.2554340931    8.1426405882    5.3874143215
     H     1.8219509668    8.1042976272    4.0827430931
     H     3.7433686491    7.8337354711    2.5658074943
     H     5.5296017246    6.1661153693    3.1204371066
     H     5.2824980072    4.8307026553    5.2244198900
