67
-1.8011333247753009e+03 frame 9   xyz file generated by TeraChem
    Cr     9.1215387865    4.0741597652    3.4833257157
     N    10.2019428456    2.4911594070    2.5953493487
     N     7.7644591295    3.1410576051    2.0478996008
     C     6.5296231392    3.5577499176    1.7624063389
     H     6.1600190686    4.4114485097    2.3109522401
     C     5.7338869020    2.9154020782    0.8091725824
     H     4.7366890211    3.2864691335    0.6225350488
     C     6.2269135344    1.8250396329    0.1236559001
     H     5.6230774058    1.3182480051   -0.6175048830
     C     7.5362618202    1.3795961201    0.3837682300
     C     8.1672145779    0.2775845118   -0.2674997923
     H     7.6143179991   -0.2723883524   -1.0166912059
     C     9.4438544574   -0.0779186745    0.0419103564
     H     9.9136786057   -0.9172146659   -0.4523463897
     C    10.1885540047    0.6436325744    1.0218115584
     C    11.5083130188    0.3400674769    1.4072328435
     H    12.0256188959   -0.4920347746    0.9481132161
     C    12.1264730087    1.0985231781    2.3782549175
     H    13.1343391481    0.8793182137    2.6992006528
     C    11.4437304077    2.1670097820    2.9598829171
     H    11.9070109836    2.7752169405    3.7223561821
     C     8.2596073462    2.0877074202    1.3638268931
     C     9.5768482604    1.7413156864    1.6588038093
     N     8.4743412422    2.9009566475    5.0423653767
     C     7.4279808147    2.0710597976    5.0521344263
     H     6.8343373284    2.0171402622    4.1518531343
     C     7.0954548489    1.3108087669    6.1797351874
     H     6.2318553989    0.6635003031    6.1343680436
     C     7.8630324738    1.3941317373    7.3235308164
     H     7.6149367492    0.8100568707    8.1999885998
     C     8.9885444927    2.2377391922    7.3401603595
     C     9.8813954056    2.4096941203    8.4423205139
     H     9.6910368236    1.8575681137    9.3525116892
     C     9.2349133664    2.9634557338    6.1591989107
     N     8.0084312072    5.7717107201    3.9094394525
     C     7.1228256093    5.8613671138    4.9038395680
     C     6.4183121356    7.0405993417    5.1591135499
     C     6.6331734754    8.1552936228    4.3751630914
     C     7.5702631519    8.0947035255    3.3265818800
     C     7.8822104078    9.1773759879    2.4489300419
     C     8.8042336654    9.0316513489    1.4584769706
     C     9.4861718004    7.7922161492    1.2706298573
     C    10.4507606448    7.5462211429    0.2754545348
     C    11.0380326060    6.3008444556    0.1933721944
     C    10.6788851610    5.2998461630    1.1001052792
     N     9.7765175259    5.5111913612    2.0606829886
     C    10.9556832710    3.2439727499    8.3567856467
     C    11.2227655176    3.9704594191    7.1571504583
     C    12.3018130499    4.8550999093    6.9669158361
     C    12.4430940914    5.5064525085    5.7589157673
     C    11.5233216836    5.2746395958    4.7357965047
     N    10.5061482862    4.4239965598    4.8870528600
     C    10.3467838868    3.7938069062    6.0707486015
     H    11.6119817024    5.7733531456    3.7822239580
     H    13.2564082143    6.1970929677    5.5903732357
     H    13.0071080087    5.0255966508    7.7696209594
     H    11.6219364748    3.3663833752    9.1997768396
     C     9.1903024830    6.7234763060    2.1395911856
     C     8.2333059494    6.8653649531    3.1423409557
     H    11.1294919574    4.3195259513    1.0558477963
     H    11.7769186238    6.0838817445   -0.5641847886
     H    10.7209121035    8.3296675106   -0.4202480109
     H     9.0307785935    9.8562933795    0.7965899070
     H     7.3716191585   10.1209019911    2.5848758450
     H     6.0920972159    9.0731901537    4.5634896633
     H     5.7087987895    7.0631243902    5.9733135315
     H     6.9679700369    4.9781156637    5.5055269006
