67
-1.8383977300165907e+03 frame 17   xyz file generated by TeraChem
    Fe     9.1186293295    4.0880339767    3.4570594220
     N     9.9886148857    2.5877077712    2.4522018874
     N     7.4912853853    3.0414884606    2.7666624393
     C     6.2025711059    3.3578387253    2.9070542879
     H     5.9777474729    4.2405952448    3.4857376312
     C     5.1770303830    2.5823416212    2.3555032020
     H     4.1518124074    2.8851765361    2.5133630087
     C     5.4760553076    1.4520382566    1.6256659272
     H     4.6923585733    0.8427878459    1.1955038608
     C     6.8249740479    1.1059946438    1.4342380165
     C     7.2836206660   -0.0246696804    0.6915276489
     H     6.5523575740   -0.6786676432    0.2357217889
     C     8.6134930493   -0.2830533302    0.5547150714
     H     8.9459061433   -1.1471117855   -0.0048103888
     C     9.5971956725    0.5706643066    1.1408238290
     C    10.9870389402    0.3748919922    1.0551088644
     H    11.3838297935   -0.4730912989    0.5130715864
     C    11.8280247997    1.2679824276    1.6824102295
     H    12.9004954648    1.1414772244    1.6471509649
     C    11.3000881445    2.3587427847    2.3761436690
     H    11.9483630206    3.0688041073    2.8650744071
     C     7.7875010606    1.9465572567    2.0260232278
     C     9.1538847261    1.6959293150    1.8615676607
     N     9.1439671186    3.0401948451    5.1197137848
     C     8.2595740544    2.1371531283    5.5509133893
     H     7.3914940208    1.9684310024    4.9330020448
     C     8.4244409678    1.4467154636    6.7595697885
     H     7.6659062528    0.7364989629    7.0560606892
     C     9.5301556043    1.6732781744    7.5522901593
     H     9.6630849681    1.1456621863    8.4874016051
     C    10.4967128864    2.5959372931    7.1190117669
     C    11.7028583269    2.9353350755    7.8075840802
     H    11.9090493071    2.4518350124    8.7531225789
     C    10.2371434353    3.2349638100    5.8927264384
     N     8.1916268430    5.6427673349    4.1854059982
     C     7.7565254893    5.7863480055    5.4381327354
     C     7.1210141677    6.9527492741    5.8775515085
     C     6.9226806802    8.0092248203    5.0124825117
     C     7.3799109178    7.8968100187    3.6881625674
     C     7.2500008253    8.8994583720    2.6761169606
     C     7.7253931478    8.6971353480    1.4164635269
     C     8.3750442221    7.4753573126    1.0628198003
     C     8.9055005607    7.1689780013   -0.2023443207
     C     9.5090209760    5.9439033310   -0.3939299293
     C     9.5960072915    5.0291704786    0.6611178096
     N     9.1099138265    5.2959022245    1.8750823893
     C    12.5822675218    3.8420265945    7.2950397148
     C    12.3305843188    4.4825667328    6.0421154074
     C    13.1702332945    5.4262790428    5.4236735517
     C    12.7873674399    5.9660076815    4.2128880700
     C    11.5912978347    5.5656513055    3.6129551194
     N    10.7890215579    4.6560456118    4.1677868335
     C    11.1470446385    4.1424957330    5.3644547025
     H    11.2833650633    5.9763636805    2.6641396184
     H    13.4024933882    6.7003414153    3.7130330510
     H    14.0952269598    5.7257707084    5.8980285547
     H    13.4883567961    4.0881720868    7.8322559684
     C     8.5081236189    6.4888260385    2.0580052945
     C     8.0110931121    6.6879578811    3.3419344627
     H    10.0736445479    4.0713030243    0.5249144430
     H     9.9236986562    5.6739394481   -1.3545042043
     H     8.8358937089    7.8856319983   -1.0097050921
     H     7.6172393692    9.4650200712    0.6623038616
     H     6.7630889605    9.8313357207    2.9304876289
     H     6.4282231782    8.9126372270    5.3436731685
     H     6.7865069050    7.0078252135    6.9035421941
     H     7.9061831859    4.9522126497    6.1058773264
