67
-1.8598581196377254e+03 frame 18   xyz file generated by TeraChem
    Co     9.1299721477    4.0895980432    3.4373695296
     N     9.9038452452    2.7480002153    2.2060949135
     N     7.4347097774    3.3096512824    2.7099393467
     C     6.1841349392    3.6713901432    2.9890659893
     H     6.0420729038    4.4540266911    3.7169759624
     C     5.0895897127    3.0527965115    2.3766081519
     H     4.0937418384    3.3759885913    2.6422127199
     C     5.2862122822    2.0493467723    1.4530084098
     H     4.4439686125    1.5658467208    0.9764429730
     C     6.5990105157    1.6614140289    1.1283939927
     C     6.9467755156    0.6457568500    0.1873496448
     H     6.1544659807    0.1200650317   -0.3274509246
     C     8.2487537854    0.3348439914   -0.0618698154
     H     8.4958644082   -0.4414710542   -0.7726928337
     C     9.3120484299    1.0175385246    0.6031581005
     C    10.6818226766    0.7578581296    0.4159848759
     H    10.9991786848   -0.0082330618   -0.2786306082
     C    11.6100939346    1.4806904960    1.1328624333
     H    12.6679886101    1.2983780871    1.0147727961
     C    11.1928806616    2.4695994270    2.0272999294
     H    11.9092396737    3.0483163772    2.5874585965
     C     7.6412557939    2.3388994899    1.7896926770
     C     8.9788021105    2.0280743349    1.5248912185
     N     9.1721949707    2.7317298871    4.8548745872
     C     8.2664692575    1.7972695590    5.1377573539
     H     7.3701944082    1.7726449488    4.5389987524
     C     8.4557868349    0.8890011114    6.1856839527
     H     7.6865546530    0.1560031324    6.3796817978
     C     9.6003228340    0.9364758840    6.9527644940
     H     9.7492955747    0.2371578157    7.7644315974
     C    10.5814677404    1.9018622545    6.6643272374
     C    11.8185210488    2.0681402963    7.3593213346
     H    12.0401230712    1.4065160469    8.1851955573
     C    10.3049357992    2.7698250248    5.5920945238
     N     8.3228201013    5.4793387307    4.5229440736
     C     7.9566753582    5.4063731478    5.8002866957
     C     7.3961347462    6.5029848594    6.4624910095
     C     7.2098581316    7.6972573230    5.7997754152
     C     7.5953693791    7.8019575384    4.4511391836
     C     7.4624172515    8.9714991094    3.6417841861
     C     7.8644047325    8.9775859434    2.3408961234
     C     8.4368545863    7.8154444459    1.7407414025
     C     8.8868391594    7.7225722173    0.4111982158
     C     9.4230357587    6.5348904777   -0.0377691479
     C     9.5216887540    5.4359249932    0.8213041471
     N     9.1065859402    5.5029137123    2.0842353896
     C    12.7092169753    3.0339305877    6.9976238372
     C    12.4388761691    3.9123365287    5.9041842304
     C    13.2916810396    4.9344394772    5.4478340289
     C    12.9006275645    5.7115160806    4.3780100406
     C    11.6733513486    5.4799467409    3.7519302979
     N    10.8591828224    4.5100849408    4.1609663249
     C    11.2214604466    3.7505714761    5.2188928602
     H    11.3572883944    6.0764046432    2.9111883003
     H    13.5323002546    6.5054136847    4.0075123846
     H    14.2415351152    5.1074851243    5.9354942008
     H    13.6399631497    3.1456639266    7.5362280371
     C     8.5695681944    6.6595306306    2.5321792061
     C     8.1559886033    6.6516378843    3.8658380687
     H     9.9466869062    4.5042904059    0.4839087303
     H     9.7762038269    6.4343574199   -1.0535526837
     H     8.8110093898    8.5762365837   -0.2488898628
     H     7.7554533166    9.8711109886    1.7418816735
     H     7.0328851567    9.8608182416    4.0818090516
     H     6.7738650400    8.5466382024    6.3082775566
     H     7.1106015615    6.3935618727    7.4982943112
     H     8.0981341922    4.4649582765    6.3061696444
