61
-1.5725210920634499e+03 frame 13   xyz file generated by TeraChem
    Cr    -0.0213195315   -0.0386938352    0.0325537278
     N    -1.8332990942    0.5975875814   -0.7377960881
     N    -1.1348920464   -1.7799155964    0.0332208587
     C    -2.7262679059   -0.3891968175   -1.0430597241
     C    -3.9277722429   -0.0987356170   -1.6855032853
     C    -4.2319480464    1.2222941678   -1.9967157333
     C    -3.3249104792    2.2272262081   -1.6604127380
     C    -2.1359442013    1.8718858980   -1.0435987243
     C    -2.3370312902   -1.7305945401   -0.5877538682
     C    -3.1254725415   -2.8781107540   -0.6895632436
     C    -2.6757565799   -4.0680362553   -0.1234786276
     C    -1.4535415278   -4.0949853549    0.5451191681
     C    -0.7141786866   -2.9249662414    0.5966339971
     H    -4.6231246765   -0.8896958933   -1.9325823977
     H    -5.1640038353    1.4634716148   -2.4923577519
     H    -3.5250659950    3.2685660578   -1.8788692184
     H    -1.3948419820    2.6153048952   -0.7835746741
     H    -4.0837764903   -2.8451041253   -1.1893122523
     H    -3.2811011925   -4.9638290176   -0.1939685544
     H    -1.0775448307   -4.9973464259    1.0113167155
     H     0.2496614723   -2.8878655125    1.0892814389
     N    -0.5042288724    0.2557733088    1.9905187588
     N     1.6578113505   -0.7141504021    0.9621917481
     C     0.5028710043    0.0587543184    2.8843972143
     C    -1.7081940322    0.6616098324    2.4476752651
     C     1.7311918064   -0.4656676538    2.3044253473
     C     2.7227361947   -1.2871889405    0.3605380421
     C     0.3189782139    0.3030143976    4.2477409572
     C    -1.9567198954    0.9048202784    3.7923392594
     H    -2.4801797232    0.8013390041    1.7037889249
     C     2.8783083577   -0.7509839294    3.0478819639
     C     3.8814171844   -1.6161747110    1.0504941794
     H     2.6330263561   -1.4716176606   -0.7002098059
     C    -0.9178601204    0.7337775732    4.7084647548
     H     1.1311797494    0.1512987921    4.9471477658
     H    -2.9396382247    1.2292381484    4.1105461661
     C     3.9685532633   -1.3328526492    2.4158340732
     H     2.9166734341   -0.5303455598    4.1074280654
     H     4.7058324547   -2.0762578749    0.5209016741
     H    -1.0707455251    0.9258484219    5.7648380170
     H     4.8664751247   -1.5636762956    2.9773511612
     N     0.7190283597   -0.3113341710   -1.8570966359
     N     0.8957516609    1.7241622191   -0.2628399183
     C     1.4139395590    0.7580545326   -2.3516017423
     C     1.9612898373    0.7132678702   -3.6313497793
     C     1.7994862610   -0.4237072932   -4.4078896028
     C     1.0814719175   -1.5091354822   -3.8937160698
     C     0.5551028689   -1.4125620333   -2.6203929669
     C     1.5231869716    1.8956234674   -1.4583839753
     C     2.2097034606    3.0790168073   -1.7476367505
     C     2.2549572626    4.0944682312   -0.8035661364
     C     1.6143037512    3.9083604027    0.4278402850
     C     0.9541113511    2.7166065102    0.6604932896
     H     2.5094276817    1.5622664804   -4.0174817415
     H     2.2232130951   -0.4660589372   -5.4031424763
     H     0.9322844986   -2.4139551383   -4.4685927825
     H    -0.0028070169   -2.2267057948   -2.1789698325
     H     2.7075269188    3.2024491882   -2.6995422901
     H     2.7847561969    5.0154482459   -1.0148211984
     H     1.6277790765    4.6728597335    1.1956841137
     H     0.4461068906    2.5347833259    1.5983009535
