61
-1.6096750314177816e+03 frame 24   xyz file generated by TeraChem
    Fe     0.0407797758   -0.0183393653    0.0318402363
     N    -1.5618237672   -0.6255486866   -0.9648892852
     N     1.0561562708   -0.9414678873   -1.4388415025
     C    -1.2367516320   -1.3202058222   -2.0963479920
     C    -2.2475671463   -1.7755254769   -2.9416473757
     C    -3.5793546095   -1.5215228567   -2.6395636212
     C    -3.8863869647   -0.8041966599   -1.4909064967
     C    -2.8489355004   -0.3700874751   -0.6830278271
     C     0.2043378424   -1.5197887325   -2.3335680560
     C     0.7149256828   -2.2503801599   -3.4038752496
     C     2.0887868982   -2.3834103156   -3.5479719081
     C     2.9362252170   -1.7938335268   -2.6150742325
     C     2.3817295425   -1.0831053699   -1.5660772631
     H    -1.9972275946   -2.3216941420   -3.8400975172
     H    -4.3633185416   -1.8736960247   -3.2968707897
     H    -4.9088103151   -0.5798293516   -1.2186263377
     H    -3.0439768295    0.1853944249    0.2209393009
     H     0.0480334254   -2.7131636500   -4.1174523297
     H     2.4935377522   -2.9484913793   -4.3772533018
     H     4.0114507271   -1.8810700068   -2.6939042633
     H     3.0000435090   -0.6032269224   -0.8227844543
     N     0.1895703951   -1.6152345721    1.1234456020
     N     1.5172273452    0.4772791621    1.1697321824
     C     1.1846818548   -1.6567367893    2.0452604799
     C    -0.6051638234   -2.6954087880    1.0109354448
     C     1.9298324335   -0.4132787260    2.1062832373
     C     2.1572917883    1.6600366128    1.1139922896
     C     1.4118439294   -2.7744145728    2.8426499530
     C    -0.4393407888   -3.8384246269    1.7768992879
     H    -1.4004225207   -2.6317637892    0.2847158410
     C     2.9617307698   -0.1299426385    2.9959184440
     C     3.1935035395    2.0084459806    1.9644006123
     H     1.8230795715    2.3446762946    0.3502821810
     C     0.5912413568   -3.8836363479    2.7080764428
     H     2.2158592067   -2.7771404317    3.5650042437
     H    -1.1106973100   -4.6751290209    1.6385963204
     C     3.6050841203    1.0964869183    2.9286541917
     H     3.2623673715   -0.8594742988    3.7345889398
     H     3.6639105737    2.9773108761    1.8651290899
     H     0.7502222362   -4.7614260184    3.3204841513
     H     4.4097647796    1.3332279469    3.6121328271
     N     0.0211141355    1.6489632997   -1.0229762219
     N    -1.0481879687    0.9851840588    1.1997868979
     C    -0.7233444076    2.6359200612   -0.4643534025
     C    -0.8870874037    3.8631646300   -1.1034773979
     C    -0.2810430621    4.0842500505   -2.3324344055
     C     0.4757217699    3.0594222521   -2.8995838911
     C     0.5984157472    1.8599365917   -2.2166417581
     C    -1.3003193400    2.2671389366    0.8228738578
     C    -2.0480297024    3.1222231160    1.6258268367
     C    -2.5463250747    2.6639423173    2.8345560640
     C    -2.2807870341    1.3609834499    3.2191323898
     C    -1.5273827821    0.5576020185    2.3798978071
     H    -1.4859483239    4.6397818843   -0.6490345214
     H    -0.4007345354    5.0326201792   -2.8393353258
     H     0.9648950582    3.1822462418   -3.8564273107
     H     1.1788573008    1.0465890622   -2.6229041282
     H    -2.2368997224    4.1395913001    1.3136957011
     H    -3.1288825753    3.3199477244    3.4679262659
     H    -2.6468589280    0.9620542507    4.1555230092
     H    -1.3046368226   -0.4640979091    2.6459347379
