35
-1.2924415265456119e+03 frame 32   xyz file generated by TeraChem
    Fe     1.6499436548    3.4421491035    3.7483338690
     O     0.5435650102    0.9370071746    3.1017008707
     O     2.2052487511    6.5098754429    3.1573859693
     N     0.9434365131    1.7435200413    3.9897392531
     N     1.7429986687    3.4965689152    5.5783167554
     N     2.0696234574    5.5564799051    3.9794876771
     C     0.9515138236    1.3634703918    5.2619806102
     C     1.4128933131    2.3513987608    6.1925894663
     C     1.5120051706    2.3001265676    7.5824509161
     C     1.9253554273    3.4639307608    8.2334734015
     C     2.2088634485    4.6516353730    7.5497317944
     C     2.0950335035    4.6529269934    6.1638734617
     C     2.2667605003    5.7677510637    5.2695411125
     H     1.2614459485    1.3984539172    8.1276895570
     H     2.0060222091    3.4560124178    9.3153064408
     H     2.4941177525    5.5530458420    8.0794280369
     N    -0.2437620564    3.9811312697    3.6246372969
     N     1.5196495793    3.4956422805    1.8710216073
     N     3.5204305439    2.9078083875    3.2666149435
     O    -1.0138560018    4.1987986472    4.6072144184
     C    -0.6563727890    4.1062207843    2.3669480644
     C     0.3261972600    3.8423573017    1.3529128486
     C     2.5988650999    3.1901927527    1.1260988305
     O     4.4696508983    2.6397332301    4.0755440555
     C     3.7275864989    2.8544900671    1.9520485770
     C     0.1756335540    3.9042450158   -0.0436756491
     C     2.5065012515    3.2356327963   -0.2759387007
     C     1.2802304965    3.5983642404   -0.8433237180
     H    -0.7758866804    4.1828559285   -0.4837007954
     H     3.3657365759    2.9962368680   -0.8936702650
     H     1.1854084964    3.6414044754   -1.9257652443
     H     0.6025762041    0.3727119042    5.5304522020
     H     2.5272602243    6.7664975526    5.6091058295
     H    -1.6805544034    4.3998072360    2.1590912612
     H     4.7058542955    2.5785177911    1.5700850457
