35
-1.2926026748821878e+03 frame 57   xyz file generated by TeraChem
    Fe     1.6378127952    3.5836900956    3.7024850203
     O    -0.4397959955    1.5490681918    3.7918936580
     O     3.4883728450    5.6461811202    2.3652418348
     N     0.2461327162    2.4513033899    4.3951621872
     N     1.6344675204    4.2780745114    5.4500864487
     N     2.9127545026    5.2152976877    3.4366765336
     C     0.0197688318    2.6535694688    5.6927212556
     C     0.8058572182    3.6777019941    6.3299305560
     C     0.7809465814    4.1073052507    7.6658139839
     C     1.6288824557    5.1573524804    8.0365549498
     C     2.4530776169    5.7849947507    7.0852369188
     C     2.4279849778    5.3219744677    5.7602150774
     C     3.1340374405    5.8306335739    4.5965409592
     H     0.1159756598    3.6328178734    8.3799535021
     H     1.6314793882    5.5047841458    9.0653966040
     H     3.0926626456    6.6143085472    7.3673894327
     N     0.1594319696    4.5714256298    3.0172593171
     N     1.6334721728    2.8112193318    1.9762597380
     N     3.0643321859    2.1190871643    3.8904687892
     O    -0.5667473946    5.4389751899    3.6286753767
     C    -0.0896853902    4.3188342884    1.7275155075
     C     0.7286291296    3.3107872994    1.1043525194
     C     2.4723338083    1.8058469924    1.6545275744
     O     3.7304478827    1.8078089841    4.9482529350
     C     3.2848023617    1.4307692659    2.7768757962
     C     0.6766483222    2.7955592286   -0.2069861059
     C     2.4474212007    1.2273857949    0.3842726860
     C     1.5426401400    1.7504633087   -0.5459977557
     H    -0.0331502290    3.1883508879   -0.9279207294
     H     3.1125873313    0.4055958774    0.1406246687
     H     1.5054832494    1.3306196058   -1.5485950722
     H    -0.7355724864    2.0636464878    6.2050149965
     H     3.8084463639    6.6836604379    4.6447042312
     H    -0.8931552732    4.8461638220    1.2198221791
     H     4.0111936555    0.6217440536    2.7663042259
