43
-1.3727791477614660e+03 frame 42   xyz file generated by TeraChem
    Fe    11.2778450913    2.0813135418    4.3748575189
     O     8.5003242254    1.7409078012    4.9731578072
     O    11.1882957972    1.0055267166    6.9278609498
     O    10.6509442518   -0.6203743302    4.0047099954
     N     9.4176639427    1.8352062817    4.1076775935
     N    11.3986191803    2.1276033716    2.4023618008
     N    11.0610195621    2.0488790784    6.2449096628
     N    10.9217941539    4.0579375903    4.6118907213
     N    11.5455639981    0.2371232304    4.2586566597
     N    13.2418426236    2.1072344425    4.7082991783
     C    10.1388182331    1.9817669829    1.8651736605
     C    12.4642348850    2.2166027875    1.6011206452
     H    13.4218932004    2.3097628849    2.0960244845
     C    12.3660867390    2.2073484523    0.2185584262
     H    13.2581408510    2.2891199220   -0.3886731893
     C    11.0937347600    2.0855758130   -0.3552667358
     H    10.9770160848    2.0707279780   -1.4333240034
     C     9.9861129439    1.9677062009    0.4638611090
     H     8.9927362118    1.8523702154    0.0467615157
     C     9.0883598061    1.8567785876    2.8065395514
     H     8.0474284960    1.7438076324    2.5295943414
     C    10.7101224862    4.3469446592    5.9372066713
     C    10.8283013846    5.0263758955    3.6973039302
     H    10.9965640790    4.7260355213    2.6713505030
     C    10.5448289454    6.3427195156    4.0228207007
     H    10.4845336796    7.0903170750    3.2426406663
     C    10.3395356728    6.6650502820    5.3661619916
     H    10.1119385390    7.6844438291    5.6577533495
     C    10.4179202892    5.6705626270    6.3226542195
     H    10.2512799202    5.8875177319    7.3710226164
     C    10.8261667239    3.2408222969    6.8126978937
     H    10.7021486171    3.3013830863    7.8868913290
     C    13.7631203302    0.8410940803    4.6878518649
     C    14.0425582113    3.1466524975    4.9697921410
     H    13.5624820174    4.1164739299    4.9780304328
     C    15.4005188076    3.0140405158    5.2068730026
     H    16.0050223925    3.8885055752    5.4099749678
     C    15.9531652761    1.7275858903    5.1786139370
     H    17.0120061390    1.5825129315    5.3630176528
     C    15.1378101717    0.6415180571    4.9233161940
     H    15.5344343377   -0.3665947809    4.9050078344
     C    12.8179410007   -0.1625949545    4.4036801482
     H    13.0542968410   -1.2172994431    4.3368783602
