17
-3.4759332277199201e+02 frame 6   xyz file generated by TeraChem
     C    -0.2303338819    0.7111189455   -0.0000007502
     C     0.9907732692    1.4405809548    0.0000001025
     C     2.1680748505    0.7261753993    0.0000011378
     C     2.1468230020   -0.6934279596    0.0000013136
     C     0.9436791737   -1.4295284934    0.0000004789
     C    -0.2401301855   -0.7302255793   -0.0000004724
     C    -1.6710198373   -1.2012449370   -0.0000013277
     C    -2.4293843290    0.0877244556   -0.0000022640
     C    -1.5655822843    1.1775162904   -0.0000018863
     H    -1.8639400254    2.2191513311   -0.0000023280
     H    -3.5115779808    0.1502741797   -0.0000031137
     H    -1.9194917843   -1.8125420518   -0.8785463970
     H    -1.9194928964   -1.8125412482    0.8785440161
     H     0.9650070637   -2.5139758387    0.0000006637
     H     3.0911219663   -1.2288881292    0.0000021302
     H     3.1234919030    1.2391653517    0.0000018519
     H     0.9789349766    2.5251436291   -0.0000000552
