31
-1.4497403193966336e+03 frame 23   xyz file generated by TeraChem
    Cr     5.9961950303    3.8680711528    6.5958094844
     N     4.9774379753    3.0733161561    4.8290105174
     H     5.6885354758    2.7706823603    4.1645750878
     H     4.4287658483    2.2419978402    5.0487530180
     N     4.1639444101    5.4692029493    6.2096913095
     H     3.6332599078    5.7935939211    7.0163232762
     H     4.5654405471    6.3013790324    5.7790145365
     C     4.1047365398    4.0894257642    4.1883673123
     H     3.4572689200    3.6387782043    3.4279909064
     H     4.7591287593    4.8113740862    3.6897175537
     C     3.2673875400    4.8034079078    5.2440366993
     H     2.5772200403    5.4995979842    4.7488617520
     H     2.6613323161    4.0734998346    5.7925451997
     N     7.2183273525    1.7479925215    6.8301986743
     H     7.6301324579    1.3184144872    6.0034570298
     H     7.9800396624    1.8834462825    7.4939388570
     N     4.6981143441    2.7372128562    7.9014617918
     H     4.3554280409    3.3402938846    8.6485332753
     H     3.8669452216    2.4101825270    7.4090564131
     C     6.2135095668    0.8402566763    7.4199113653
     H     6.6590567418   -0.0583069696    7.8678485438
     H     5.5432190989    0.5108811055    6.6184987135
     C     5.4128410104    1.5756718215    8.4895651351
     H     4.7153479303    0.8830642776    8.9740741273
     H     6.0900132091    1.9655516790    9.2553308322
     C     7.8378610247    5.2730874659    4.3238255991
     N     7.2380143407    4.8647020307    5.2564239706
     C     7.0576348435    4.8519934538    9.4702217450
     N     6.8734047395    4.6824971793    8.3140595655
     S     8.7183082802    5.8393337501    3.0571605037
     S     7.3281858244    5.1108717774   11.0687199046
