55
-1.6642265704325591e+03 frame 19   xyz file generated by TeraChem
    Ti     3.6515033445    8.0773348251   11.1851008157
     O     4.4583954260    9.8700370057   11.1139053923
     O     5.0318317167    7.7868817614    9.8251595493
     O     3.3658517667    6.1446970550   11.3988263340
     O     4.5594099348    7.7667210640   12.9001255829
     O     2.0811685759    8.7415135820   12.1569937524
     O     2.3294129904    8.1483925041    9.7146888985
     C     5.4740801377   10.0302814396   10.2601751820
     C     5.7905797970    8.8402571714    9.5050014396
     C     6.7988850591    8.8539958291    8.5671885391
     H     7.0281395257    7.9541109032    8.0013616706
     C     7.5473935831   10.0465742955    8.3394695009
     C     8.5957191610   10.1048786328    7.3852490585
     H     8.8259367256    9.2071517774    6.8154136174
     C     9.3134768707   11.2667334141    7.1760874311
     H    10.1126387893   11.2885977845    6.4398894091
     C     9.0096457129   12.4299343499    7.9202069033
     H     9.5759901523   13.3425231242    7.7541982842
     C     7.9945115797   12.4063429998    8.8571051605
     H     7.7584267918   13.3000356948    9.4309678922
     C     7.2382690721   11.2298316707    9.0960978220
     C     6.1866504204   11.1921782630   10.0591494108
     H     5.9474614297   12.0854071585   10.6314962955
     C     4.5152758327    6.5219610549   13.3879317974
     C     3.8400351426    5.5872043264   12.5177337189
     C     3.7271188352    4.2611713974   12.8719942796
     H     3.2206770939    3.5613118756   12.2114718855
     C     4.2746853783    3.8012397889   14.1064609685
     C     4.1793235679    2.4447521582   14.5107961249
     H     3.6702895084    1.7437031464   13.8526507800
     C     4.7164558087    2.0121028080   15.7079917574
     H     4.6320131345    0.9679930797   15.9975377249
     C     5.3775377446    2.9274358323   16.5590636920
     H     5.7994375621    2.5839492137   17.4998824329
     C     5.4864776789    4.2557194256   16.1949023106
     H     5.9936833275    4.9631578627   16.8475778795
     C     4.9459324632    4.7323803832   14.9728940296
     C     5.0516494830    6.1009673410   14.5843920260
     H     5.5585717846    6.8090711116   15.2357273122
     C     0.9606542280    8.9068462491   11.4457599473
     C     1.0993736449    8.5436486070   10.0550160118
     C     0.0200245666    8.6371844317    9.2030622487
     H     0.1271404552    8.3613666901    8.1565052969
     C    -1.2396369276    9.0977091851    9.6872605588
     C    -2.3737425519    9.2077233896    8.8418275829
     H    -2.2688533945    8.9297650684    7.7951119910
     C    -3.5884130920    9.6551747647    9.3244907773
     H    -4.4441859267    9.7312704829    8.6588972340
     C    -3.7207161580   10.0148130205   10.6856441501
     H    -4.6777090113   10.3660632230   11.0623285274
     C    -2.6350441790    9.9197571366   11.5348875630
     H    -2.7329308637   10.1957481987   12.5827669293
     C    -1.3739776255    9.4642638139   11.0714637047
     C    -0.2447033196    9.3583978939   11.9360517094
     H    -0.3389957542    9.6310377335   12.9846661058
