19
-1.2556003803423046e+03 frame 30   xyz file generated by TeraChem
    Fe    11.6363557374   13.4388522023    8.4962711289
     O    13.5037762539   13.0208992308    7.4618873882
     O     9.4509488462   16.3056427114    6.4505481832
     O    12.9764815186   14.8725902887    9.3193615239
     O    11.7388579868   12.0047532283   10.0414350951
     O    11.0200006614   14.7819107532    6.9571995333
     O     8.2448977670   15.8147934705    8.8908910530
     O    15.0685357313   15.6778807132    9.1821945194
     O    10.7089038602   11.7323399728    7.5905759726
     C    14.4885173721   13.7718623173    7.7802475346
     C     9.2904128118   15.1988234440    8.6143692648
     O    11.4555700377    9.8150757889   10.4624682781
     C    10.7415236800   10.6603004947    8.2918942092
     O    15.6439012937   13.6991814090    7.3211032000
     O    10.3319610442    9.5427331308    7.9332236226
     C    14.1711561918   14.8822001458    8.8541571969
     C     9.9663561641   15.4662415755    7.2098348313
     C    11.3687692862   10.8156277082    9.7314942168
     O     9.8882434555   14.3545975146    9.3690681480
