19
-1.2770763538113288e+03 frame 1000   xyz file generated by TeraChem
    Co    11.5874732692   13.5964806776   -4.4174601792
     O    13.4441012198   13.9283110891   -4.2741629074
     O     9.6540688962   16.4556731364   -6.2224817984
     O    11.4028015308   14.3441393501   -2.6848376048
     O    11.8184382374   11.8804669318   -3.7219070909
     O    11.3207511315   15.2980851053   -5.2644474752
     O     7.9239207741   14.3746330227   -5.4724113871
     O    12.6523939668   14.3409835552   -0.7865290132
     O    11.9099807922   12.7728455037   -6.1307062314
     C    13.7589466265   14.0968737137   -3.0094698757
     C     9.1291669635   14.3064608535   -5.2310990741
     O    12.7036437412    9.9016175422   -4.2084938767
     C    12.2787750097   11.5325847664   -6.0332229663
     O    14.9091744905   14.1674542142   -2.5776585832
     O    12.5721246248   10.7997467032   -6.9793213060
     C    12.5272000885   14.2627866210   -2.0253501643
     C    10.0853601330   15.4769114621   -5.6097273644
     C    12.3006706467   11.0136938608   -4.5508486815
     O     9.7147196061   13.3044571763   -4.6523577642
