43
-1.1072338103075404e+03 frame 6   xyz file generated by TeraChem
     V     2.2846876578    1.9435490840    7.6125325548
     O     0.6332241713    2.9226106807    7.1107120610
     O     2.7983972223    1.8863742136    5.7165890085
     O     1.3262713669    0.2124934469    7.5014759362
     O     3.9532015536    0.9458235003    7.9956499538
     O     1.8636012864    1.9672975435    9.5771415797
     O     3.2304418589    3.6424174892    7.9066298642
     C    -1.0483228343    4.0499259863    5.9170656342
     H    -1.8317840306    3.4203674498    6.3445946159
     H    -1.3359934183    4.3463234576    4.9102457551
     H    -0.9800800517    4.9408343138    6.5456278180
     C     0.2581284142    3.3113002729    5.9504458311
     C     0.9757860579    3.0857242104    4.7745868507
     H     0.5634276597    3.4613830007    3.8491233219
     C     2.1905773634    2.3960812780    4.7117862256
     C     2.8817504748    2.2077994032    3.3941522027
     H     3.8838983829    2.6390535822    3.4455100475
     H     2.3388081945    2.6629007655    2.5680088988
     H     3.0057183367    1.1407303730    3.1957500831
     C     0.8764459889   -2.0436621952    7.0068074720
     H     0.1452841981   -2.1162075144    7.8146224174
     H     1.3616651711   -3.0088848812    6.8744440992
     H     0.3222176587   -1.7935318853    6.0994943685
     C     1.8524575120   -0.9448401790    7.3125299883
     C     3.2208030602   -1.2212879462    7.3876498387
     H     3.5355442652   -2.2428261024    7.2280068942
     C     4.2012777749   -0.2822465636    7.7493326113
     C     5.6339980554   -0.7079618978    7.8990709019
     H     6.2364677324   -0.2162410445    7.1313121435
     H     5.7623919224   -1.7852561333    7.8113591666
     H     6.0157087104   -0.3730417121    8.8652903024
     C     1.2625840960    2.7238072604   11.7271728131
     H     0.2007160721    2.4935516644   11.6108953509
     H     1.3687134482    3.5777121330   12.3936687264
     H     1.7284149495    1.8487599614   12.1845824749
     C     1.8685921090    2.9661640661   10.3745316779
     C     2.4130527089    4.2191874731   10.0596862369
     H     2.3826273443    4.9951920782   10.8111863375
     C     3.0842835457    4.4874018743    8.8665007935
     C     3.7282888501    5.8244265149    8.6451500223
     H     4.7995108006    5.6890688686    8.4806506986
     H     3.5778695990    6.5050286467    9.4813726978
     H     3.3237994603    6.2766712626    7.7371419231
