43
-1.1073743163663264e+03 frame 18   xyz file generated by TeraChem
     V     2.3351271355    2.0386191600    7.5766559280
     O     2.4902508378    3.9357804988    8.3820456088
     O     4.1022438930    1.5008944643    8.4869434010
     O     3.3660934632    2.5851028277    5.8766122365
     O     2.1282006954    0.1385902178    6.7728953956
     O     0.5909114654    2.5514731225    6.5599333619
     O     1.1349293679    1.4477493098    9.1557996579
     C     3.3067682254    5.7804953318    9.6190663227
     H     3.1657844795    6.4521871467    8.7641530282
     H     4.1748013644    6.1108266521   10.1949759212
     H     2.4120962838    5.8687460403   10.2483707528
     C     3.4385013413    4.3516971731    9.1282694084
     C     4.5645566413    3.6039515438    9.5269139538
     H     5.2896488349    4.1111818978   10.1537078985
     C     4.8415407486    2.2630408994    9.1962606232
     C     6.1262015774    1.6398573859    9.7061318395
     H     5.8968671205    0.7177358962   10.2533576120
     H     6.6907085433    2.3110768144   10.3581324823
     H     6.7589403773    1.3593503517    8.8546433878
     C     4.2329899491    2.6006870421    3.6736412876
     H     3.6959862890    3.5212552980    3.4144485432
     H     4.3183951048    1.9758727572    2.7810272429
     H     5.2388781243    2.8956944562    3.9970395037
     C     3.5181416501    1.8996645899    4.8122503884
     C     3.0831491100    0.5731868364    4.6253447796
     H     3.2805196720    0.1184313882    3.6610204615
     C     2.4340026746   -0.2238095000    5.5891702547
     C     2.0592863549   -1.6463422362    5.2201582940
     H     2.5573560469   -2.3459289275    5.9025624677
     H     2.3304564712   -1.9006210065    4.1924432419
     H     0.9790092079   -1.7851524665    5.3493684609
     C    -1.6843263201    2.7947320382    5.9562408666
     H    -1.5667050740    3.8595229882    5.7211734974
     H    -2.6958294351    2.6240137278    6.3335109330
     H    -1.5562297847    2.2423499516    5.0173265661
     C    -0.6110365945    2.3714597237    6.9413858757
     C    -1.0079450191    1.8154074003    8.1737934930
     H    -2.0724396510    1.7142834483    8.3526264926
     C    -0.1383938364    1.3889025865    9.1954348457
     C    -0.7318118976    0.8107859021   10.4655283947
     H    -0.3504207624   -0.2063847588   10.6176491619
     H    -1.8241501971    0.7804557794   10.4446232140
     H    -0.4085997790    1.4071500473   11.3274511130
