43
-1.1223024076186950e+03 frame 9   xyz file generated by TeraChem
    Cr     1.7732014563    2.1222937000    7.5741216647
     O     3.2686259903    3.3891419078    7.0304934751
     O     2.6688796682    2.1329899294    9.5609022791
     O     2.9539380777    0.5773829537    6.9442192831
     O     0.3789623645    0.7840024898    8.1903864703
     O     0.7814217222    2.1742340820    5.6597458224
     O     0.5407129381    3.6875218359    8.0099238322
     C     5.5374143691    3.9344535844    6.6515506456
     H     5.5930709407    3.3777212876    5.7064812800
     H     6.5212126719    3.9203433458    7.1291501039
     H     5.2788521450    4.9702340188    6.3976886012
     C     4.4531499705    3.3371977596    7.5257827204
     C     4.8152818308    2.7662619923    8.7548806737
     H     5.8729157719    2.7481495873    8.9965613951
     C     3.9348660815    2.1434664073    9.6725088970
     C     4.5289883019    1.3872532404   10.8480415220
     H     5.6026715698    1.5602200237   10.9672814484
     H     4.3632796569    0.3111580713   10.6994383490
     H     4.0134461483    1.6668800202   11.7748173495
     C     3.9222204015   -1.5780406100    6.8167828172
     H     3.7181196756   -2.6262430143    7.0502743873
     H     4.8357844708   -1.2648155908    7.3381484844
     H     4.1164487368   -1.4804582986    5.7411969498
     C     2.7858777936   -0.6581722689    7.2122051103
     C     1.6430719866   -1.2110799802    7.8223937081
     H     1.6181742556   -2.2867744148    7.9550947765
     C     0.5106623763   -0.4852247999    8.2372222231
     C    -0.6774442901   -1.2436794752    8.7929671811
     H    -0.9169710063   -0.8653925257    9.7947313311
     H    -0.5020029909   -2.3211887998    8.8485484075
     H    -1.5547063334   -1.0570171537    8.1602879690
     C     0.6978271011    3.3344107687    3.5743816386
     H     1.7480728616    3.1635647050    3.2989530102
     H     0.3784732092    4.2904892035    3.1484580986
     H     0.1122976259    2.5252259658    3.1205199931
     C     0.5640770984    3.2902445128    5.0869416114
     C     0.2437936575    4.4867142457    5.7774676250
     H     0.0335385061    5.3691402653    5.1817091312
     C     0.2408731139    4.6204089603    7.1759812660
     C    -0.1229047291    5.9560334767    7.7925778641
     H    -0.9567858299    5.8251619839    8.4942523390
     H    -0.4037026552    6.7029355904    7.0440753732
     H     0.7269224886    6.3377821164    8.3747836912
