43
-1.1222272684397049e+03 frame 19   xyz file generated by TeraChem
    Cr     2.2006830392    1.9768572669    7.4517684384
     O     3.0866419058    2.2958882310    5.7332325650
     O     1.9089241199    3.8933631261    7.7285976572
     O     3.9570194899    2.1483132520    8.3307415803
     O     1.2702589088    1.6185101833    9.1634497650
     O     2.5308607866    0.0503133513    7.1743734708
     O     0.4459824788    1.8816547011    6.5585499270
     C     4.0795278855    3.3722456661    3.8855341242
     H     5.0284680187    2.8421551505    4.0295734387
     H     4.2780716153    4.3638015616    3.4737493858
     H     3.4897064758    2.7913851827    3.1667419179
     C     3.3429088426    3.4353705068    5.1980674968
     C     2.9852296571    4.6773347729    5.7471398931
     H     3.2572462341    5.5658874896    5.1917710842
     C     2.2909162990    4.8466949757    6.9569741747
     C     1.9425021348    6.2326751849    7.4337480499
     H     2.3083216513    7.0069905215    6.7564166122
     H     2.3685084203    6.3906637502    8.4314418883
     H     0.8536424830    6.3188210416    7.5289047257
     C     5.6133654681    2.1939386456   10.0092639854
     H     5.7474175511    2.0880623544   11.0877937530
     H     5.9692830004    3.1816556758    9.6939876936
     H     6.2284173299    1.4473320947    9.4931164099
     C     4.1744162949    2.0273559208    9.5906175720
     C     3.1971271931    1.7645615092   10.5652698315
     H     3.5305241641    1.6970312431   11.5930978933
     C     1.8265054099    1.5796773725   10.3186660696
     C     0.8904269726    1.3057158980   11.4683959230
     H     0.1159953122    2.0813972543   11.4956636647
     H     1.4091139444    1.2787081475   12.4287363550
     H     0.3839785039    0.3476777898   11.3019384055
     C     2.2663988662   -2.1784246812    6.4512729199
     H     3.2312502888   -2.1789300544    5.9304280835
     H     1.5705171563   -2.8334476857    5.9232020453
     H     2.4423693481   -2.5721280646    7.4592376555
     C     1.7557726555   -0.7635732597    6.5531906536
     C     0.5121648828   -0.4335212911    5.9916523839
     H    -0.0379738639   -1.2263592232    5.5006965447
     C    -0.0776576226    0.8387751306    6.0235990204
     C    -1.4288466900    1.0564728626    5.3926288593
     H    -2.1273178372    1.4275540854    6.1519274581
     H    -1.8301172598    0.1443216345    4.9466452985
     H    -1.3459423151    1.8321518255    4.6221261255
