43
-1.1397863695815608e+03 frame 13   xyz file generated by TeraChem
    Mn     1.9683609517    1.8429387030    7.6007344075
     O     1.4954237358    1.0242257131    5.6754487100
     O     2.1565925312    3.5748478944    6.7295026726
     O     3.8128498013    1.3754893192    7.2773707154
     O     2.6164692494    2.7370095337    9.4750209241
     O     1.7109230958    0.1374301520    8.4275008922
     O     0.1282992295    2.2800448725    7.9854009748
     C     1.8495980986    0.6520909675    3.3629074577
     H     2.4869059332   -0.2276133603    3.5132372312
     H     2.1655112313    1.1710256817    2.4555556410
     H     0.8242339393    0.2874047541    3.2359776592
     C     1.9211756264    1.5263855715    4.5933097562
     C     2.4332223146    2.8432563938    4.4689131957
     H     2.7503884295    3.1681518494    3.4857546417
     C     2.4880270747    3.7806079273    5.4950864972
     C     2.9634299240    5.1833059904    5.2142594402
     H     2.2042685524    5.9004998135    5.5460928575
     H     3.1765627030    5.3452951749    4.1558515025
     H     3.8691106729    5.3787159643    5.8008320789
     C     6.1228897345    1.6766443657    6.9664534573
     H     6.2994379283    0.5955109728    7.0030658795
     H     6.9922018979    2.1975170150    7.3725447773
     H     5.9954291520    1.9466697433    5.9115972857
     C     4.8577103281    2.0045509922    7.7165282838
     C     4.8844464232    2.9030888612    8.7794006580
     H     5.8405209851    3.3510513675    9.0198623039
     C     3.7815978815    3.2100847088    9.6218675715
     C     3.9960694080    4.1506265531   10.7853192198
     H     3.4104197321    5.0626422200   10.6164826986
     H     5.0446875857    4.4232391191   10.9222913654
     H     3.6147551075    3.6886977973   11.7023478971
     C     0.8371385717   -1.7450376026    9.5407221722
     H     1.1706620839   -2.4186680451    8.7433846533
     H    -0.0841784634   -2.1296353963    9.9813836356
     H     1.6257136544   -1.7296054556   10.3017475723
     C     0.6623546484   -0.3598525079    8.9812767949
     C    -0.5659113317    0.2976051528    9.0825856247
     H    -1.3894525620   -0.2082240021    9.5685670423
     C    -0.7736349701    1.5853503717    8.5796207473
     C    -2.1153643283    2.2528029826    8.7068971888
     H    -1.9943924288    3.2139650845    9.2188645611
     H    -2.8320873791    1.6365564984    9.2523576117
     H    -2.5079116534    2.4672802876    7.7061613423
