43
-1.1810466072316322e+03 frame 10   xyz file generated by TeraChem
    Co     2.1379141027    2.1142141111    7.3741797686
     O     3.6097566622    3.4723253256    7.9718557763
     O     2.4315616768    1.1028630262    9.1741758354
     O     3.5857615705    0.9132404694    6.4709545180
     O     0.6851614136    0.6899173816    6.8031396347
     O     1.7784092907    3.1591687863    5.6064158784
     O     0.6285609495    3.3088020284    8.2703823771
     C     5.5322955724    4.3405888089    9.0622402662
     H     6.1430149057    4.3236505262    8.1512700419
     H     6.1763874293    4.1606748126    9.9267611171
     H     5.0985193479    5.3446128692    9.1412672625
     C     4.4192262296    3.3161114134    8.9394032037
     C     4.3789189702    2.2790984369    9.8926897395
     H     5.1515872426    2.2832372844   10.6526648595
     C     3.4115731126    1.2601702038    9.9677055681
     C     3.5129188941    0.2496542443   11.0969115949
     H     2.5911878563    0.2763089464   11.6906996360
     H     4.3660354677    0.4302135957   11.7561426080
     H     3.5957377087   -0.7595436194   10.6746434096
     C     4.6978908818   -1.0402742914    5.7306038987
     H     4.5109851218   -2.0802056086    5.4504916392
     H     5.4174332821   -1.0163795133    6.5580626137
     H     5.1623161407   -0.5201726732    4.8839259132
     C     3.4350597952   -0.3045081610    6.1420188640
     C     2.2176466594   -1.0135673185    6.1134763234
     H     2.2649022951   -2.0485072459    5.7941881336
     C     0.9422356066   -0.4894768785    6.4101328922
     C    -0.2576038062   -1.4057445558    6.2470730229
     H    -0.7732693164   -1.5052016531    7.2100777527
     H     0.0154476257   -2.4000270461    5.8848126583
     H    -0.9693891872   -0.9527863751    5.5460106395
     C     0.9936548892    4.7513271808    4.0390034175
     H     1.9959408450    5.1341176453    3.8089445167
     H     0.2707903646    5.5640665754    3.9303864803
     H     0.7703538254    3.9701559127    3.3029582247
     C     0.9939128444    4.1467382668    5.4314355546
     C     0.1433610134    4.7098303272    6.4007302948
     H    -0.4673447087    5.5476546835    6.0840190569
     C     0.0013779053    4.2705756774    7.7354288129
     C    -0.9919812785    4.9925663644    8.6298188651
     H    -1.7455036532    4.2793661590    8.9857851356
     H    -1.4969159773    5.8190849517    8.1231683539
     H    -0.4713743711    5.3800330254    9.5140316400
