22
-3.8812428960109895e+02 frame 10   xyz file generated by TeraChem
     C    -0.9261981788   -1.0121049804    0.0198173206
     C    -2.2687442560   -0.6622701497    0.0010485122
     C    -2.6700118973    0.6780331531   -0.0678205553
     C    -1.7188463777    1.7192596855   -0.1212771071
     C    -0.3807877959    1.4114829219   -0.1031888428
     C     0.0601928036    0.0491859946   -0.0310071893
     C     1.4399122788   -0.2846892559   -0.0070117081
     C     2.4939176173    0.6134752181   -0.0282984503
     C     3.9125510901    0.2074750251    0.0035780659
     H     4.4061383370    0.6723806206    0.8701703694
     H     4.0449153793   -0.8759332002    0.0406977425
     H     4.4300137530    0.6156523690   -0.8774468128
     H     2.2992638999    1.6817855363   -0.0668663719
     H     1.7022117231   -1.3367724221    0.0364513333
     H     0.3492155209    2.2099932424   -0.1461350177
     H    -2.0452927534    2.7517726092   -0.1773312282
     H    -3.7288456060    0.9174099788   -0.0816820669
     H    -3.0215285594   -1.4425693015    0.0397759808
     C    -0.5259795707   -2.4572313876    0.0931290731
     H    -1.4121816466   -3.0944374115    0.1193177082
     H     0.0700226274   -2.6603082747    0.9903712737
     H     0.0803298113   -2.7466518710   -0.7729316293
