19
-5.6236285279593494e+02 frame 1000   xyz file generated by TeraChem
    Mn    -0.0382154106    0.0615203359   10.0923038092
     O     0.3036432533    2.2202093374    9.9400567655
     H     1.0222359289    2.4719234744    9.3329458277
     H    -0.4637013643    2.7580772414    9.6745220704
     O    -0.5671267990   -0.2373365115    8.0031375248
     H     0.0070049950    0.1534722891    7.3205414963
     H    -0.6330397207   -1.1839790381    7.7785613919
     O    -2.1949125727    0.2457282451   10.4045985578
     H    -2.5025288327    1.0095173805   10.9247951935
     H    -2.6561305808    0.3176078377    9.5486134876
     O     0.4908403198    0.3604120745   12.1830410539
     H     0.5564458315    1.3068006572   12.4088907801
     H    -0.0828765629   -0.0310842993   12.8656665597
     O    -0.3802313815   -2.0973190583   10.2439240668
     H     0.3872604702   -2.6355046140   10.5085549605
     H    -1.0984637056   -2.3493221955   10.8513941144
     O     2.1182476051   -0.1227459541    9.7794005557
     H     2.4257329914   -0.8862413364    9.2587262323
     H     2.5797717219   -0.1949465523   10.6353087957
