19
-5.6210111011658523e+02 frame 160   xyz file generated by TeraChem
    Mn    -0.0863683909    0.0553136911   11.2329034235
     O    -0.4819416822    1.9874816340   10.9806483462
     H    -0.0992991737    2.5999304266   11.6434256070
     H    -0.3371241419    2.3860320480   10.0973333980
     O    -0.3258392059   -0.3403777176    9.3773841008
     H     0.3146418310    0.0310571882    8.7309470920
     H    -1.2338194899   -0.2325081437    9.0164603741
     O    -2.1217375923   -0.2544697091   11.5330068678
     H    -2.8110481657    0.4335707140   11.5167286816
     H    -2.5417594834   -1.1239818068   11.6624317940
     O     0.1681942910    0.4490900192   13.0882445879
     H     1.0701504394    0.3237099303   13.4577782155
     H    -0.4806786444    0.0725325366   13.7238514991
     O     0.1547853215   -1.8927496605   11.5484390332
     H     0.7618834938   -2.1885443895   12.2586104998
     H     0.3733711767   -2.4113825731   10.7459030832
     O     1.9479855934    0.3654709269   10.8906604574
     H     2.6298233079   -0.3278639683   10.8252201955
     H     2.3727006960    1.2345122619   10.7698891704
