19
-5.8159727218811940e+02 frame 535   xyz file generated by TeraChem
    Fe    -0.0383274671    0.0613835434    9.8306326613
     O    -0.3959289701    1.8508179780   10.6943802882
     H    -0.1483958640    2.6860719575   10.2482948701
     H    -0.3038889006    1.9789537106   11.6597773333
     O     0.1343067857    0.9999028650    8.0514893869
     H     0.9898359494    1.0819399228    7.5837737466
     H    -0.5745926885    0.9341691983    7.3800370273
     O    -2.0083676735   -0.1431562630    9.4830998385
     H    -2.6581124690    0.3973180496    9.9776854951
     H    -2.3966713688   -1.0318668684    9.3493615501
     O    -0.2108841560   -0.8771847306   11.6082554064
     H     0.4980551259   -0.8112506470   12.2796331101
     H    -1.0666087709   -0.9592895528   12.0756261856
     O     0.3192889380   -1.7278626483    8.9667623099
     H     0.2275840707   -1.8555883978    8.0011781504
     H     0.0723720235   -2.5641334318    9.4112357563
     O     1.9318032531    0.2660348797   10.1780958888
     H     2.5824474465   -0.2743346801    9.6844631337
     H     2.3200111722    1.1549091729   10.3112710705
