19
-6.0322035097636297e+02 frame 155   xyz file generated by TeraChem
    Co     0.0283804347    0.0197959798    9.9481193716
     O    -0.1336442678    1.9131434545    9.7635628908
     H    -0.7198792089    2.2290963799    9.0482029272
     H    -0.4046072079    2.3855675086   10.5814151831
     O    -0.9377290410   -0.3903162813    8.3999862599
     H    -0.4550700678   -0.1785349502    7.5742996858
     H    -1.8246605682    0.0218670788    8.3109192303
     O    -1.5738573621   -0.0944674962   10.9951795586
     H    -2.2685939461    0.5653373532   10.7912327790
     H    -2.0107133030   -0.9720724252   10.9830119876
     O     0.9247479955    0.1723103710   11.6509732781
     H     1.6998989787    0.7670172561   11.6851101381
     H     0.2892035829    0.4538365505   12.3468346885
     O     0.4121466392   -1.8347416305   10.0962003302
     H    -0.2433421097   -2.4066675962    9.6458050630
     H     0.5032528734   -2.1509170004   11.0226005295
     O     1.6261696084    0.1699337871    8.9359064772
     H     2.2802844129   -0.5353640815    9.1391585209
     H     2.0819327569    1.0319928420    9.0803340005
