19
-6.0347538254095957e+02 frame 98   xyz file generated by TeraChem
    Co    -0.0407496196    0.0623758610   10.0093622310
     O    -0.2989925937    2.1807182847   10.0118013588
     H    -0.0836772973    2.6224918310    9.1707052547
     H     0.2848766180    2.5987158314   10.6699825324
     O     0.0516764190   -0.0956999974    8.0126875134
     H     0.9105720566   -0.0520753877    7.5548446761
     H    -0.5405630562    0.4890525669    7.5038850758
     O    -2.1628651389    0.0163805307    9.8645754582
     H    -2.6021267221    0.6630895736   10.4450576936
     H    -2.6157399948   -0.8286321273   10.0306724894
     O    -0.1055892448    0.2376377571   11.9811767944
     H     0.5036959175   -0.3449329137   12.4701421089
     H    -0.9609416596    0.1805832543   12.4425510342
     O     0.2006275533   -2.0576269115    9.9922569777
     H    -0.3909382608   -2.4522771105    9.3249703073
     H    -0.0133825355   -2.5212799739   10.8203161617
     O     2.0840644962    0.0956762944   10.1488606900
     H     2.5060488564   -0.5614870429    9.5659204852
     H     2.5479244064    0.9341067799    9.9790840572
