19
-1.0526450315724708e+03 frame 49   xyz file generated by TeraChem
    Co     1.5736518610    3.2264826002    4.8146082348
     O     1.2254400470    1.3668992096    4.0347796292
     O     2.0524681967    2.2019849054    6.4612013271
     O     1.4975869596   -0.7814645241    4.6568443864
     O     2.2621787621    0.0951317064    7.2014131100
     O     0.9892369601    4.2914628278    3.2082026568
     O     2.0599396246    5.0567457668    5.5341547940
     O     0.8643777630    6.4071295062    2.4761437429
     O     1.8796349504    7.2278363083    4.9562102605
     O     3.5680842605    3.7473865669    2.3789410453
     H     3.7591448384    4.2234349477    3.2096433700
     H     2.5943107273    3.8342228865    2.3270579793
     O    -0.5780605200    3.0792656621    5.7726161576
     H    -0.7297199762    2.4262797330    5.0671348109
     H    -0.0304732754    2.6093497595    6.4321839296
     C     1.5463899512    0.4275745271    4.8807909711
     C     2.0071324023    0.9105729849    6.3152349805
     C     1.1265498162    5.5793127908    3.3488463732
     C     1.7314129511    6.0253779350    4.7346753407
