37
-8.6562560419723559e+03 frame 23   xyz file generated by TeraChem
    Ti     8.9786979911    9.9418145528    1.8184481848
     S    10.6473974333   10.8255688220    0.2574675438
     C    12.0986827771    9.8582820803    0.2621282239
     C    13.2173685181   10.2007514683   -0.5077313129
    Cl    13.1449636175   11.7027965303   -1.3869213913
     C    14.3739465479    9.4208272969   -0.5456423579
    Cl    15.7350179186    9.8715767527   -1.5560544511
     C    14.4175661925    8.2473084063    0.2179875795
    Cl    15.8819377072    7.2737363904    0.2105492920
     C    13.3157167216    7.8951691831    1.0056830754
    Cl    13.4321295876    6.4043854593    1.9105042917
     C    12.1472909945    8.6772761017    1.0600022069
     S    10.7912577879    8.2881410588    2.1048068055
     S     9.4108839759   11.9913233455    3.0757472218
     C     8.7487284494   11.7917173946    4.6694862542
     C     8.8554557496   12.8346391819    5.6030378333
    Cl     9.6972450912   14.3217320991    5.1749258814
     C     8.2943419728   12.7211397816    6.8785934768
    Cl     8.4329718371   13.9684923267    8.1283174146
     C     7.6150061263   11.5391352707    7.1901544089
    Cl     6.8092974409   11.3910593345    8.7319497064
     C     7.5266237984   10.4896587725    6.2840520567
    Cl     6.6609643798    9.0211232966    6.7130923612
     C     8.0970291849   10.5666602197    5.0132731698
     S     7.9576759470    9.2188624753    3.8988165182
     S     7.2630006218   11.2371422885    0.6324334318
     C     6.2127011743   10.1002779738   -0.2148770836
     C     5.0953099192   10.5374354677   -0.9518179092
    Cl     4.7335669570   12.2594102376   -1.0132971795
     C     4.2469787139    9.6525784615   -1.6277003125
    Cl     2.8239463556   10.2595665893   -2.4530051993
     C     4.5060782461    8.2793311896   -1.6004871254
    Cl     3.4890938684    7.1772988183   -2.5286008932
     C     5.5986105305    7.8159322753   -0.8542051875
    Cl     5.9031584654    6.0815691047   -0.8064651558
     C     6.4491464982    8.6875393620   -0.1481181750
     S     7.7856429012    8.0622667302    0.7950638954
