37
-8.6693534777269888e+03 frame 16   xyz file generated by TeraChem
     V     8.8912176889   10.1808932282    1.7457410539
     S     9.9242308085   12.3046322076    1.4520617490
     C    11.6387123674   12.0544051787    1.7052280669
     C    12.5217975143   13.1407981732    1.6245629705
    Cl    11.8631168249   14.7338758238    1.3347288442
     C    13.8983993411   12.9843359794    1.7742850619
    Cl    14.9739870927   14.3612864010    1.6673172156
     C    14.4211898827   11.7090026675    2.0134064815
    Cl    16.1494747951   11.5012312433    2.2043145171
     C    13.5593765615   10.6160592572    2.0996554219
    Cl    14.2486342963    9.0363149949    2.3994282289
     C    12.1684665818   10.7480666669    1.9544442562
     S    11.1034821903    9.3698434421    2.1336686088
     S     8.0575437575   11.0150771686    3.8167736403
     C     7.4861102255    9.6964652365    4.7989076048
     C     6.8993900770    9.8600316860    6.0627409469
    Cl     6.6860392412   11.4725746264    6.7153352348
     C     6.4780903462    8.7605151173    6.8189276478
    Cl     5.7450823371    8.9544562153    8.4043608406
     C     6.6448327391    7.4687985818    6.3016077594
    Cl     6.1242417375    6.0584179598    7.1845341624
     C     7.2323154768    7.2967645128    5.0617821168
    Cl     7.4433870591    5.6816648176    4.4165097934
     C     7.6562759675    8.3884967940    4.3039830476
     S     8.3503738170    8.1506715228    2.7369504577
     S     6.9186916067   10.8147172502    0.7039652082
     C     6.7873828887   10.0724199643   -0.8605507392
     C     5.7133771009   10.3267744675   -1.7253332820
    Cl     4.4732280360   11.4650406162   -1.2381392350
     C     5.6089157189    9.6934070520   -2.9598305463
    Cl     4.2413486915   10.0500176415   -3.9872527132
     C     6.5909663863    8.7802198310   -3.3636060752
    Cl     6.4595647450    7.9952093604   -4.9290955674
     C     7.6620800782    8.5110313564   -2.5037507667
    Cl     8.8915167701    7.3630645973   -2.9947851320
     C     7.7742901777    9.1467783479   -1.2555232767
     S     9.1083011730    8.8501659125   -0.1757566032
