37
-8.6844384514783978e+03 frame 21   xyz file generated by TeraChem
    Cr     8.9313285419   10.1400519144    1.8128741172
     S     9.6596774263   12.4067159760    2.3613326757
     C    11.4068447077   12.2497146543    2.3887990784
     C    12.1812193829   13.3804312387    2.6938897069
    Cl    11.3565637224   14.8877752310    3.0699944843
     C    13.5779540197   13.3615402524    2.7205014943
    Cl    14.4979472881   14.8104550515    3.1173584634
     C    14.2450141041   12.1747637118    2.4306400346
    Cl    16.0063478128   12.1331527605    2.4503825956
     C    13.5035424380   11.0299718242    2.1263280261
    Cl    14.3992085468    9.5565950085    1.7723294589
     C    12.0984982916   11.0045930016    2.0915694506
     S    11.2533224889    9.5078172108    1.7450100280
     S     8.5739800875    9.6764461731    4.1869001810
     C     8.1561600162    7.9978933469    4.3377507917
     C     7.8600053164    7.3856393777    5.5700866669
    Cl     7.8830835157    8.3301531821    7.0611786382
     C     7.5356378120    6.0269691149    5.6693061994
    Cl     7.1604682482    5.2896751806    7.2221850413
     C     7.5037402596    5.2420995537    4.5214838976
    Cl     7.1027652165    3.5314913872    4.6205374606
     C     7.7955979950    5.8277930495    3.2924980155
    Cl     7.7569382757    4.8313236177    1.8389362518
     C     8.1199571969    7.1845235789    3.1704656756
     S     8.4521887583    7.8687798500    1.6153130438
     S     6.6569263239   10.7125439338    1.5490098099
     C     6.3735006124   10.9218814069   -0.1459507248
     C     5.1167200967   11.3146864240   -0.6228758079
    Cl     3.8216839594   11.6340622831    0.5294588132
     C     4.8488250203   11.4658231635   -1.9825558168
    Cl     3.2498593333   11.9672397951   -2.5223374270
     C     5.8601054477   11.2147952802   -2.9081942320
    Cl     5.5305178055   11.3957458420   -4.6307427562
     C     7.1227905690   10.8168061807   -2.4516344755
    Cl     8.3864159025   10.4969286970   -3.6377337908
     C     7.4153414607   10.6631271205   -1.0868951925
     S     8.9947542994   10.1735204252   -0.5356026771
