37
-8.7018902753064031e+03 frame 15   xyz file generated by TeraChem
    Mn     8.9355137428   10.1340496149    1.8321272702
     S     9.5564334685   12.1735957848    2.9003156272
     C    11.3138778128   12.0471217609    2.8931303318
     C    12.0531032606   13.0905182754    3.4668909086
    Cl    11.1890556514   14.4251661580    4.1963334667
     C    13.4479011529   13.0896737978    3.4837235555
    Cl    14.3346047915   14.4076614404    4.2201795133
     C    14.1361499950   12.0216328705    2.9074410662
    Cl    15.8873049840   12.0103475933    2.9154397066
     C    13.4198962948   10.9700643022    2.3321409557
    Cl    14.3227685011    9.6469374706    1.6267493723
     C    12.0170474291   10.9370187340    2.2982133243
     S    11.1835711195    9.5435201788    1.6094315195
     S     8.5855637323    9.2115302583    4.0131662215
     C     8.1945286634    7.5281148188    3.7891762167
     C     7.8971255751    6.6598265534    4.8533192023
    Cl     7.8767755185    7.2558882458    6.5052466129
     C     7.6048320262    5.3102253733    4.6294970307
    Cl     7.2239954685    4.2347793607    5.9545178960
     C     7.6131193650    4.8070356688    3.3297364035
    Cl     7.2535718736    3.1229401672    3.0262262617
     C     7.9105297167    5.6572410017    2.2712563275
    Cl     7.9253904368    5.0380646506    0.6308225408
     C     8.2034349431    7.0068800293    2.4813794854
     S     8.5384638124    8.0490101763    1.1307546863
     S     6.7229634394   10.6733279914    1.7543710481
     C     6.4113325838   11.2567478051    0.1512021670
     C     5.1447692907   11.7241273809   -0.2060047668
    Cl     3.8756175260   11.7633055678    1.0028122984
     C     4.8729519240   12.1627424904   -1.4979576969
    Cl     3.2751659268   12.7488894643   -1.9026851397
     C     5.8842665756   12.1275238157   -2.4612460461
    Cl     5.5396336906   12.6753578104   -4.0889544605
     C     7.1543728615   11.6537554967   -2.1130574070
    Cl     8.4231897861   11.6019052518   -3.3206731620
     C     7.4388477198   11.2133654948   -0.8136297138
     S     9.0277609399   10.6336329450   -0.3597953240
