37
-8.7019509228503848e+03 frame 155   xyz file generated by TeraChem
    Mn     9.0184901365    9.8235271880    2.6728989167
     S    10.6927960318   10.6470115471    1.2031507899
     C    12.2204884115    9.8347306156    1.4981245614
     C    13.4006378414   10.3789195651    0.9616566895
    Cl    13.3672462262   11.9997341484    0.2993037072
     C    14.6178682764    9.6869345935    0.9799993971
    Cl    16.0575421317   10.3883660558    0.2765251296
     C    14.6563601341    8.4065394002    1.5393780471
    Cl    16.1396489455    7.4797056213    1.4649636148
     C    13.5037578120    7.8837568375    2.1429570059
    Cl    13.5800586855    6.2481341043    2.7664268091
     C    12.2803983647    8.5890484583    2.1987834638
     S    10.8814505334    7.9916454796    3.0711266431
     S     9.7313378551   11.6339489321    3.9699752143
     C     8.7414383815   11.5517640533    5.4073536203
     C     8.8624395720   12.5679436138    6.3731045857
    Cl     9.9926762669   13.8802321257    6.0919527071
     C     8.0954628936   12.5715081370    7.5467817516
    Cl     8.2638576637   13.8365753021    8.7492951841
     C     7.1725887656   11.5383447852    7.7515874783
    Cl     6.1541284824   11.5413361146    9.1605841834
     C     7.0508261359   10.5167503273    6.7986937110
    Cl     5.8777480827    9.2411174912    7.0601790980
     C     7.8216738394   10.4881143089    5.6220000208
     S     7.5856027496    9.1919611292    4.4338663587
     S     7.2465068766   11.3202593689    1.4634885490
     C     6.2229354087   10.1529018802    0.6246770952
     C     5.0491801776   10.5643837737   -0.0472055979
    Cl     4.5977444188   12.2621300068   -0.0286466584
     C     4.2225978521    9.6790472694   -0.7550912868
    Cl     2.7605728629   10.2514857270   -1.5237542118
     C     4.5683213356    8.3273828718   -0.8387013443
    Cl     3.5741977122    7.2229268914   -1.7694447344
     C     5.7143794307    7.8839142409   -0.1589599704
    Cl     6.1222078577    6.1768016482   -0.2695807678
     C     6.5472163481    8.7522950087    0.5766202546
     S     8.0030477031    8.1023478073    1.3534908456
