37
-8.7215186219517782e+03 frame 25   xyz file generated by TeraChem
    Fe     8.8855467629   10.1809584754    1.7640122308
     S     9.6680037860   12.5025217557    1.4132384728
     C    11.3935294251   12.4598531287    1.6558992933
     C    12.1317050198   13.6507667149    1.5628203037
    Cl    11.2619174990   15.1513309639    1.2847697747
     C    13.5211563278   13.6976710892    1.6845829075
    Cl    14.3971230109   15.2215635428    1.5629974461
     C    14.2197329542   12.5147407259    1.9143990505
    Cl    15.9761864539   12.5522329525    2.0535355677
     C    13.5148505614   11.3134970701    2.0232589767
    Cl    14.4567220791    9.8562200496    2.3067313046
     C    12.1141828107   11.2277618190    1.9180847597
     S    11.2923596946    9.7059334947    2.1428769568
     S     8.0582514808   10.7751895653    4.0238535041
     C     7.6811939652    9.3301455637    4.9010870019
     C     7.1557275081    9.3361298581    6.2043047974
    Cl     6.8120139007   10.8749400296    6.9905921395
     C     6.8901980916    8.1584433446    6.9156639324
    Cl     6.2267354116    8.1861112827    8.5529845562
     C     7.1483155080    6.9280981155    6.3110898364
    Cl     6.8361751511    5.4199130171    7.1556819381
     C     7.6668993198    6.8963925455    5.0241393734
    Cl     7.9934773260    5.3360957878    4.2748984810
     C     7.9322410929    8.0613880045    4.2986565907
     S     8.5183657051    7.9584272836    2.6800961138
     S     6.6754064184   10.5243039354    0.8114442356
     C     6.6186139983    9.8666561136   -0.7897685602
     C     5.4768177687    9.9764231160   -1.6032492193
    Cl     4.0760740584   10.8621837114   -1.0059009650
     C     5.4000857999    9.4072967930   -2.8750243713
    Cl     3.9344691340    9.5919883026   -3.8317460421
     C     6.4896266067    8.7008015641   -3.3813812496
    Cl     6.3948338880    7.9729398035   -4.9876954118
     C     7.6394064900    8.5760437389   -2.5912916967
    Cl     9.0021871189    7.6680752448   -3.2412975870
     C     7.7419429616    9.1512398253   -1.3107603337
     S     9.1933570108    9.0192478711   -0.3719873087
