37
-8.7213723983769378e+03 frame 11   xyz file generated by TeraChem
    Fe     8.7871564511   10.0539034176    2.0207087667
     S     9.6112022476   12.4929118914    1.9732093267
     C    11.3199787632   12.2282279883    1.7872616581
     C    12.1809271517   13.2643719564    1.3825127733
    Cl    11.4836385445   14.8418621611    1.0928042270
     C    13.5543568387   13.0808550777    1.2277685692
    Cl    14.5808063392   14.4126365745    0.7377658477
     C    14.1255140646   11.8269771789    1.4714038642
    Cl    15.8492480562   11.5822711291    1.2795536433
     C    13.3011103151   10.7787124130    1.8690124175
    Cl    14.0219179401    9.2110768528    2.1836123077
     C    11.9248648737   10.9529539892    2.0412300265
     S    10.9590515416    9.6436756313    2.6575981207
     S     7.8860214852   10.7199855031    4.0399023649
     C     7.3620118775    9.3014873439    4.9207212531
     C     6.7078830169    9.3859145316    6.1645434389
    Cl     6.3420592602   10.9602715661    6.8458797516
     C     6.3387885344    8.2479742431    6.8884792127
    Cl     5.5158285884    8.3765470861    8.4349846349
     C     6.6276082120    6.9825091994    6.3683342985
    Cl     6.1807291221    5.5305566139    7.2342490835
     C     7.2776633307    6.8780983123    5.1486628719
    Cl     7.6400869483    5.2815336155    4.5250852017
     C     7.6488583803    8.0058504349    4.3984477403
     S     8.4221872805    7.8310584407    2.8599972678
     S     6.7412137799   10.3871473225    1.0350546515
     C     6.9197429927   10.0404325287   -0.6529650886
     C     5.8439146708   10.1723120952   -1.5321823160
    Cl     4.3035539068   10.7215223419   -0.9057164662
     C     5.9789777339    9.8780775439   -2.8845362835
    Cl     4.6033865794   10.0696918164   -3.9452061086
     C     7.2080094572    9.4314203474   -3.3802336772
    Cl     7.3856242958    9.0604456592   -5.0846331433
     C     8.2859609793    9.2878928977   -2.4998704324
    Cl     9.8298304991    8.7163436861   -3.0954002438
     C     8.1548500383    9.5834879856   -1.1424351941
     S     9.4908680030    9.3925288234   -0.0240075662
