19
-4.4803484594932434e+02 frame 8   xyz file generated by TeraChem
     C    -0.4213074016    1.6929879614   -0.2032275387
     C     0.9280576913    1.7832086404   -0.4435521128
     C     1.6477707722    0.5979630270   -0.6767951505
     C     1.0533986137   -0.6744321608   -0.6921448850
     C    -0.2978064129   -0.7570642640   -0.4532508213
     C    -1.0756363457    0.4173158115   -0.1942756512
     C    -2.4585514958    0.2516266663    0.0729157655
     C    -3.3588930852    1.2644324458    0.3555287302
     C    -4.7848942131    1.0263476369    0.6524306026
     H    -5.0549638730   -0.0307741980    0.6107231326
     H    -5.4089244143    1.5998910438   -0.0487786721
     H    -5.0217987418    1.4303867894    1.6484147292
     H    -3.0230548651    2.2981965351    0.3746439238
     H    -2.8386624015   -0.7675576233    0.0598539098
     H    -0.7936801822   -1.7220268816   -0.4543152695
     H     1.6626640278   -1.5493930070   -0.8870748923
     F     2.9546247508    0.6888821416   -0.8867623112
     H     1.4498283109    2.7331704085   -0.4508119904
     H    -0.9858104343    2.5977491271   -0.0143515985
