37
-8.7216033922168099e+03 frame 23   xyz file generated by TeraChem
    Fe     8.8933151060   10.1750100106    1.7473014012
     S    10.0014677073   12.3889715142    1.3619834082
     C    11.7155648080   12.1270086561    1.5636473595
     C    12.6109222205   13.1976497196    1.3946230522
    Cl    11.9576017783   14.7980453327    0.9992748503
     C    13.9913357626   13.0740803453    1.5393522440
    Cl    15.0878722529   14.4627349626    1.2156621684
     C    14.5286489348   11.8320033475    1.8437998704
    Cl    16.2973177661   11.6841940865    2.1391825675
     C    13.6761259040   10.7406511473    2.0131295422
    Cl    14.4367003939    9.1878025222    2.4149703092
     C    12.2767433505   10.8109433408    1.8696574591
     S    11.2645996910    9.4055134306    2.0994147339
     S     8.1208260998   10.9951312458    3.9892733131
     C     7.5990810985    9.6628609002    4.9715628334
     C     7.1179527417    9.8003042360    6.2845774160
    Cl     7.0444919189   11.4155706937    7.0293441129
     C     6.6750349047    8.7138045550    7.0486365477
    Cl     6.1489372180    8.8949923710    8.7691716976
     C     6.7311139716    7.4372606324    6.5019072431
    Cl     6.0566497126    6.0209278080    7.3718654442
     C     7.2214354169    7.2657814404    5.2208253711
    Cl     7.2671774311    5.6167668442    4.5526596406
     C     7.6836658910    8.3296494640    4.4377863570
     S     8.3052390171    8.0611929013    2.8492911332
     S     6.7539493675   10.7548516665    0.7028150944
     C     6.5999716512   10.0068592966   -0.8531956159
     C     5.4719490414   10.1846108494   -1.6761345106
    Cl     4.1334017354   11.2095926311   -1.1068111810
     C     5.3498702922    9.6002565146   -2.9351336893
    Cl     3.8301780657    9.8068966733   -3.8692493536
     C     6.3630656653    8.7811397527   -3.4162508431
    Cl     6.2554966320    8.1295669215   -5.0966316657
     C     7.4900741657    8.5639668788   -2.6136112305
    Cl     8.7747275474    7.5164720138   -3.2609362941
     C     7.6389251572    9.1314139221   -1.3320292374
     S     9.0240014812    8.8290473717   -0.3301342495
