37
-8.7215186224347945e+03 frame 25   xyz file generated by TeraChem
    Fe     8.8881620556   10.1807007955    1.7608889676
     S     9.6568994452   12.5002180032    1.4015774675
     C    11.3809588485   12.4742436623    1.6590144356
     C    12.1099764398   13.6707798519    1.5708482578
    Cl    11.2303831394   15.1639806233    1.2821498785
     C    13.4979263593   13.7292286699    1.7050918214
    Cl    14.3627399970   15.2602530951    1.5880632238
     C    14.2040991266   12.5527454489    1.9434399120
    Cl    15.9592307249   12.6046057551    2.0988251998
     C    13.5085680488   11.3460957414    2.0480422486
    Cl    14.4591150247    9.8965421408    2.3435702928
     C    12.1098630103   11.2486634710    1.9293101773
     S    11.2996096014    9.7205748030    2.1468524790
     S     8.0625720132   10.7624009767    4.0245221791
     C     7.6798065692    9.3145585088    4.8951834167
     C     7.1446560102    9.3166304720    6.1944779056
    Cl     6.7931863987   10.8530987649    6.9823323424
     C     6.8752668615    8.1372502437    6.9011544743
    Cl     6.1999703981    8.1616459957    8.5338242368
     C     7.1394715073    6.9088309327    6.2960199506
    Cl     6.8224464760    5.3990157356    7.1375158954
     C     7.6672342726    6.8806922193    5.0124477050
    Cl     8.0012408020    5.3219551195    4.2629004747
     C     7.9372692875    8.0477816107    4.2911412018
     S     8.5373644953    7.9499631025    2.6773258238
     S     6.6775027392   10.4955386029    0.8148300407
     C     6.6298337938    9.8497655580   -0.7919352128
     C     5.4894966523    9.9571683589   -1.6068817830
    Cl     4.0811707603   10.8291559477   -1.0066522952
     C     5.4197675974    9.3959859676   -2.8825087772
    Cl     3.9553235007    9.5758527872   -3.8426928637
     C     6.5155930031    8.7005139132   -3.3903006094
    Cl     6.4297485470    7.9816195633   -5.0013640750
     C     7.6643472917    8.5787718496   -2.5989716572
    Cl     9.0352264400    7.6844743164   -3.2511818618
     C     7.7598925488    9.1456401906   -1.3144320630
     S     9.2095121127    9.0165832009   -0.3728315104
