25
-3.2468232668586002e+03 frame 27   xyz file generated by TeraChem
     V     9.9112132859   10.2919707225    4.3725585348
     S    10.8145097367    9.5430428642    2.2083904638
     C     9.8502477852    8.1506362893    1.7790796910
     C    10.1430740776    7.5253356772    0.5598291109
     N    10.3625187299    7.4424878726   -0.5946618998
     S     8.6234648883   10.8453843421    6.2892902562
     C     7.7127000037   12.2756027210    5.8599130622
     C     7.7620901224   12.8068593901    4.5801741786
     S     8.6616046499   12.0504212441    3.2950116441
     C     6.9216445866   12.8538224494    6.8680529547
     N     6.4962852037   13.2693070646    7.8756173295
     C     7.0354331593   13.9521768826    4.2510451152
     N     6.4618189995   14.9979552689    4.1655290824
     S     8.4424032717    8.3088023868    4.1701142469
     C     8.8600078587    7.6349087688    2.6073180393
     C     8.1271355616    6.5045503222    2.1963244734
     N     7.4673613466    5.6594759927    1.7305898082
     S    11.7728441994   11.7109826211    4.7491448801
     C    12.8180371836   10.9385755424    5.9128609965
     C    12.5311005895    9.6727808865    6.3704287971
     S    11.1665563518    8.7832742371    5.7763573020
     C    13.9553708743   11.6447760718    6.3411115444
     N    14.8979627188   12.1882177670    6.7684341115
     C    13.3604786891    9.0309223989    7.3080585516
     N    14.0425493261    8.2992992162    7.9095476255
