25
-3.2468997755536129e+03 frame 33   xyz file generated by TeraChem
     V     9.9320622237   10.2782879684    4.4125805885
     S    11.2207227340    9.6355157988    2.4161751241
     C    10.2853013931    8.3774121718    1.6327140388
     C    10.7949855654    7.8647492908    0.4347181045
     N    11.2331897854    7.8247162836   -0.7120840248
     S     8.3361226430   10.8309068752    6.2358575826
     C     7.4491646024   12.2427162516    5.7056603000
     C     7.7194293247   12.8761821027    4.4931274382
     S     8.9222047385   12.2847376162    3.3648368211
     C     6.4565609783   12.7292868802    6.5691165649
     N     5.7438045466   13.0713957686    7.4375996647
     C     7.0191533639   14.0262643042    4.1176022004
     N     6.4734169133   15.1009556057    4.1126405502
     S     8.3971078705    8.4857503779    3.6585515607
     C     9.0975103443    7.8735519593    2.1720281652
     C     8.4069670155    6.8356632096    1.5297540100
     N     7.7868953977    6.1155707525    0.8394673955
     S    11.7750849691   11.6780755628    5.2888775560
     C    12.6927629491   10.7053432694    6.4150349478
     C    12.3225393801    9.4018922701    6.7230195605
     S    10.9450871020    8.6354282311    5.9692415976
     C    13.8143912830   11.3004730559    7.0109100157
     N    14.7236385592   11.7513625623    7.6017478490
     C    13.0419870851    8.6430274515    7.6570765185
     N    13.6083224321    7.8123037797    8.2638658702
