79
-4.0791411200720668e+03 frame 6   xyz file generated by TeraChem
     V     5.1747612482    7.7825471648    0.4660414652
     S     4.6534147960    6.1306965237   -1.0596545117
     C     3.2885814276    5.2609857744   -0.4607646266
     C     2.6980153401    5.6457823910    0.7444944248
     S     3.3824737463    6.9507046282    1.6454741846
     C     2.8793932168    4.0697610204   -1.2040379167
     C     2.7819978150    4.1041997008   -2.5981109643
     H     2.9911531001    5.0236022992   -3.1323985345
     C     2.3898830619    2.9718573763   -3.2966046225
     H     2.2996346232    3.0174684255   -4.3759937987
     C     2.1169612546    1.7830382869   -2.6217815285
     H     1.8182429588    0.9013330339   -3.1772967809
     C     2.2344592778    1.7306869989   -1.2398818290
     H     2.0390178834    0.8058132254   -0.7108156520
     C     2.6069088766    2.8642011960   -0.5311989987
     H     2.7031434581    2.8186466894    0.5451895377
     C     1.4397804126    5.0682805988    1.2276419175
     C     0.3986683458    4.8752743134    0.3029437483
     H     0.5461454229    5.1573394267   -0.7317825823
     C    -0.8160890367    4.3464223409    0.7083714455
     H    -1.6147364792    4.2134394724   -0.0123408237
     C    -1.0069304006    3.9907269753    2.0410765473
     H    -1.9527651657    3.5690742831    2.3600440933
     C     0.0203688744    4.1849401645    2.9642419388
     H    -0.1333418002    3.9068635288    3.9996396462
     C     1.2351718461    4.7340470719    2.5717431403
     H     2.0303033136    4.8830249341    3.2919658714
     S     4.2388969171    9.3430577853   -0.9557884621
     C     4.0388887910   10.8527928775   -0.1738687168
     C     4.3918291801   10.9475726874    1.1738548940
     S     5.0848841328    9.5650545556    1.9375531145
     C     3.5141650747   11.9316474961   -1.0301259111
     C     4.0946881997   13.2126195309   -1.0574484298
     H     4.9445578249   13.4303823476   -0.4244971360
     C     3.6019059697   14.1891473884   -1.9167256919
     H     4.0711967163   15.1655583625   -1.9394763314
     C     2.5144521521   13.9176474998   -2.7464730772
     H     2.1262322305   14.6850799204   -3.4064834954
     C     1.9293251582   12.6534290003   -2.7269482316
     H     1.0822847799   12.4338808569   -3.3666287077
     C     2.4310465730   11.6680277558   -1.8864548680
     H     1.9672971600   10.6887599632   -1.8701906141
     C     4.2154789934   12.1458550172    2.0030663675
     C     5.2628479034   12.5725320053    2.8318906985
     H     6.2042264379   12.0360567687    2.8188151677
     C     5.1078448796   13.6907602782    3.6426960981
     H     5.9304654206   14.0195543511    4.2660555565
     C     3.8985708134   14.3848954705    3.6524828893
     H     3.7745258073   15.2544516777    4.2867281720
     C     2.8451626305   13.9553488860    2.8431004015
     H     1.8981594177   14.4820074392    2.8576717061
     C     2.9992453349   12.8490399738    2.0143786208
     H     2.1764561857   12.5146668620    1.3952017873
     S     7.1361894815    8.1025793817   -0.7319475696
     C     8.4473272264    7.4031119161    0.1194403808
     C     8.2171238686    6.8219701325    1.3650854496
     S     6.6096197708    6.7593973299    1.9785828264
     C     9.7611531178    7.4378761544   -0.5401436654
     C    10.2291985981    8.6052986006   -1.1644925087
     H     9.6323838828    9.5092327443   -1.1297892730
     C    11.4655917919    8.6143733768   -1.7995073123
     H    11.8235541331    9.5256822285   -2.2643099586
     C    12.2419751039    7.4566470714   -1.8383898670
     H    13.2039832550    7.4659521232   -2.3378780185
     C    11.7763619912    6.2866347390   -1.2383002584
     H    12.3682409574    5.3799238330   -1.2810073040
     C    10.5505708009    6.2756126121   -0.5879164203
     H    10.1904666773    5.3630703060   -0.1318385761
     C     9.2935425227    6.2550776691    2.1790414857
     C    10.4972881269    6.9445405556    2.4099492467
     H    10.6437095016    7.9255839277    1.9767961939
     C    11.4841533351    6.3831620296    3.2063849385
     H    12.4013319851    6.9302253883    3.3890956775
     C    11.2956701352    5.1202639756    3.7658108390
     H    12.0736872590    4.6764859844    4.3753693112
     C    10.1051245367    4.4305534874    3.5411763425
     H     9.9559833874    3.4473888810    3.9711144926
     C     9.1066125783    4.9975993527    2.7667703310
     H     8.1869741737    4.4542368968    2.5838322247
