79
-4.0797213528528900e+03 frame 31   xyz file generated by TeraChem
     V     5.1894702674    7.6763610839    0.5412633881
     S     5.4693649407    5.8227832410   -1.0460384756
     C     4.4146857388    4.5238748282   -0.5046847967
     C     3.6840564797    4.6143161504    0.6516053757
     S     3.8702381942    6.0158483700    1.7130808272
     C     4.4749880919    3.2704608652   -1.2769737783
     C     4.4808607385    3.2481408868   -2.6756226634
     H     4.4264014093    4.1885309729   -3.2128439340
     C     4.5548893725    2.0477038081   -3.3748677102
     H     4.5417953237    2.0679178700   -4.4622558485
     C     4.6441084577    0.8267128786   -2.7047256867
     H     4.7127931179   -0.1031885427   -3.2625065985
     C     4.6752895797    0.8293628336   -1.3178832912
     H     4.7695205820   -0.1035736689   -0.7685834843
     C     4.5955593932    2.0278016973   -0.6198424595
     H     4.6327463951    2.0191198194    0.4622511393
     C     2.6716245800    3.6059454593    1.0101140413
     C     1.8750920893    3.0527584762   -0.0161198221
     H     2.0251698521    3.4001852914   -1.0303658832
     C     0.9020408264    2.0982737840    0.2372717776
     H     0.3094496961    1.7000714456   -0.5828388832
     C     0.6738468738    1.6623179859    1.5422139612
     H    -0.0959865137    0.9261438869    1.7535773575
     C     1.4245853200    2.2286817169    2.5753012227
     H     1.2450799821    1.9115980363    3.5994351108
     C     2.4011894190    3.1904848524    2.3239228944
     H     2.9700565553    3.6306053850    3.1346607127
     S     3.5812360555    8.6274311768   -0.9147486678
     C     2.9233072533   10.0807066448   -0.1568801642
     C     3.2460694307   10.3633246550    1.1560570368
     S     4.4784117216    9.4025411989    1.9889368708
     C     2.1304126055   10.9500572816   -1.0496317837
     C     2.2228534984   12.3570586564   -1.0028098321
     H     2.8959926684   12.8136732822   -0.2876384953
     C     1.4873762114   13.1644491146   -1.8664645304
     H     1.5910631383   14.2446263308   -1.8043645125
     C     0.6330688244   12.6012645140   -2.8180062127
     H     0.0643279439   13.2334289452   -3.4941498430
     C     0.5474385087   11.2100878066   -2.8998503363
     H    -0.1006262648   10.7462878663   -3.6397548591
     C     1.2835489433   10.4030680308   -2.0383026052
     H     1.2173681709    9.3241574160   -2.1154095153
     C     2.5730369875   11.3662834653    1.9991511836
     C     3.3093060114   12.0689568929    2.9758370330
     H     4.3689175340   11.8613424321    3.0637339540
     C     2.7096045507   13.0035164900    3.8144831578
     H     3.3152404583   13.5303341573    4.5472642893
     C     1.3426149960   13.2707391997    3.7177512905
     H     0.8701159687   13.9940612291    4.3753084815
     C     0.5895101028   12.5646203163    2.7735666626
     H    -0.4813878368   12.7347443570    2.6969385010
     C     1.1891021685   11.6290158463    1.9320573153
     H     0.5851670136   11.0748756694    1.2230586192
     S     6.9759548978    8.7769901981   -0.6371947949
     C     8.4174316629    8.7329433772    0.3830365653
     C     8.4151654298    8.0460014615    1.5669338561
     S     7.0143507521    7.1074246205    2.0754630054
     C     9.6328680872    9.3648287185   -0.1639270279
     C     9.5844459040   10.5629055304   -0.9075373990
     H     8.6214813454   11.0321144450   -1.0752603799
     C    10.7413151282   11.1478032593   -1.4135036438
     H    10.6677032171   12.0808163084   -1.9674113239
     C    11.9900308953   10.5548074525   -1.2129468665
     H    12.8864097180   11.0107469328   -1.6239758729
     C    12.0551834633    9.3455412602   -0.5175738338
     H    13.0100891345    8.8454177080   -0.3781263569
     C    10.9015869564    8.7630190043   -0.0130800317
     H    10.9684677256    7.8151850914    0.5041557218
     C     9.5615609866    8.1129023599    2.4886191609
     C    10.2256427669    9.3204873752    2.7822624249
     H     9.8692686790   10.2344739256    2.3218993623
     C    11.3148825348    9.3584279280    3.6432492771
     H    11.8036360911   10.3074733179    3.8471534255
     C    11.7778343166    8.1876065503    4.2459491679
     H    12.6268316283    8.2158901619    4.9223596110
     C    11.1110785379    6.9874856047    3.9887037937
     H    11.4502297654    6.0674966376    4.4576240147
     C    10.0165803254    6.9526594467    3.1360211287
     H     9.4950460910    6.0217234894    2.9445625502
