55
-3.3128332123477567e+03 frame 21   xyz file generated by TeraChem
    Ni    -1.5342491264    2.5590386530    3.8085357812
     S     0.0414366056    1.2042238105    2.5207811683
     S    -2.5464897956    0.3712518940    3.6839293006
     N    -0.9613255570   -1.2750616178    2.2263772982
     C    -1.1428279909   -0.0386474841    2.7439742877
     C     0.2265900098   -1.6160505537    1.4422418523
     C     0.0542257038   -1.3284134092   -0.0444148834
     C    -1.9330386339   -2.3496680522    2.4217358272
     C    -1.6689568170   -3.1505509480    3.6918990864
     S    -2.5175530183    3.6598641543    1.8673561652
     S    -3.4639971557    3.7880295943    4.6231391203
     N    -4.7534864410    4.9979835631    2.5878695688
     C    -3.7069930739    4.2330305067    2.9768621276
     C    -4.9748776033    5.3839777784    1.1970226480
     C    -4.2751216042    6.6905870943    0.8366994149
     C    -5.7313263270    5.4778457123    3.5641835480
     C    -6.8752232034    4.4921710841    3.7788722721
     S     0.0399622586    4.3891962467    4.3502660240
     S    -0.5205236156    2.1060128254    5.9980211691
     N     1.2324548207    4.0246826956    6.7292003005
     C     0.3563214387    3.5653387829    5.8094503160
     C     1.9479378891    5.2900003483    6.5590014992
     C     1.1628715715    6.5150804086    7.0192039151
     C     1.4393193523    3.3018399641    7.9860002898
     C     0.4180113262    3.6340868394    9.0694434595
     H     1.7327108860    7.4248038417    6.8066933267
     H     0.2138508529    6.5742308812    6.4828821648
     H     0.9577391635    6.4847379032    8.0919253322
     H     2.8892067610    5.2129069436    7.1099505148
     H     2.1916749585    5.3914923992    5.5000571815
     H     0.5919006696    3.0081941646    9.9504086031
     H     0.4782779883    4.6803599351    9.3775733455
     H    -0.5910284471    3.4340708606    8.7041538578
     H     1.3960556660    2.2338471661    7.7648455181
     H     2.4512245164    3.5276367715    8.3328119672
     H    -5.2128641658    5.6525001457    4.5077606187
     H    -6.1084135924    6.4420929152    3.2123444712
     H    -4.6094181770    4.5782632111    0.5590989767
     H    -6.0541248002    5.4646399776    1.0409975193
     H    -4.4684097393    6.9530071424   -0.2074879415
     H    -4.6221028065    7.5151310614    1.4662597671
     H    -3.1964374364    6.5819762739    0.9716346201
     H    -7.5873532846    4.8871549695    4.5094790868
     H    -7.4141036479    4.2967944524    2.8473082184
     H    -6.4820584178    3.5460172298    4.1576656312
     H    -2.9279505821   -1.9053776538    2.4612914160
     H    -1.8952210594   -2.9973208699    1.5414041164
     H    -2.4009027153   -3.9569456786    3.7964618558
     H    -0.6694583719   -3.5958317985    3.6806569611
     H    -1.7468677454   -2.4989597240    4.5650722346
     H     1.0677505343   -1.0433334061    1.8350387459
     H     0.4421413343   -2.6753375416    1.6094456453
     H     0.9572834028   -1.6098315815   -0.5945231341
     H    -0.7895043814   -1.8850272728   -0.4623260442
     H    -0.1244871759   -0.2618297101   -0.1958051330
