49
-1.3935414275717062e+03 frame 34   xyz file generated by TeraChem
    Ti    11.4301240609    8.4777648886    2.7247772062
     O    12.5488184227    8.7848630679    1.3992124159
     O    12.3248160694    6.9337190798    3.5268385263
     O    13.9313879468    6.0535677658    4.8668810305
     O    10.6292398568   10.2426347561    2.7673021647
     O     9.3055136018   11.7627990437    3.7093193423
     O     9.9861800416    7.4418366683    2.0967663732
     N    12.9690382244    9.3831891747    4.0088497481
     N    10.2808744396    8.4274711042    4.6976176347
     C    13.6884833189    9.3680683178    1.0461923961
     C    14.2413949718    9.0572347093   -0.2056495302
     H    13.7215528091    8.3587151827   -0.8540515571
     C    15.4296818317    9.6484955802   -0.5996506855
     H    15.8648671006    9.4209087398   -1.5694840506
     C    16.0600621136   10.5319033435    0.2731771607
     H    16.9937118900   10.9933860557   -0.0274135605
     C    15.4929581746   10.8182614354    1.5269289821
     H    16.0116692968   11.5087669215    2.1804417637
     C    14.2766410868   10.2529301042    1.9483196277
     C    13.5571297875   10.5826454458    3.2639197104
     H    14.2515934222   11.1155842121    3.9169223345
     H    12.7118326640   11.2409399905    3.0614919103
     C    14.0000975804    8.3701733942    4.2875331706
     H    14.5067347658    8.5577652549    5.2331432936
     H    14.7569964302    8.4071042900    3.4983613205
     C    13.4083888120    6.9801315045    4.2672547515
     C    12.2729825789    9.7850091700    5.2623220154
     H    11.7491005624   10.7199088744    5.0682126755
     H    13.0057389099    9.9859444071    6.0469669165
     C    11.2919165413    8.7039827010    5.7373585846
     H    11.8257794081    7.7793255971    5.9484344079
     H    10.8072973589    9.0108713362    6.6668112414
     C     9.2742545645    9.5076862933    4.5975906974
     H     9.0025753813    9.9122401947    5.5714651843
     H     8.3696777531    9.0892182999    4.1495541460
     C     9.7418225128   10.6282771480    3.6604001895
     C     9.6346776672    7.0729086625    4.8883076482
     H     9.1679323118    7.0404156055    5.8748957911
     H    10.4541238618    6.3545202316    4.8763039942
     C     8.5963429776    6.6619740084    3.8417381948
     C     7.3688325374    6.0490304853    4.1251489239
     H     7.1038097027    5.8964560510    5.1634208038
     C     6.4834572572    5.6203794107    3.1286233248
     H     5.5490666789    5.1438700504    3.3972273088
     C     6.8007890098    5.8065536194    1.7858371101
     H     6.1371611813    5.4897861081    0.9854933280
     C     7.9940379664    6.4243564052    1.4669623680
     H     8.2749472118    6.5973091926    0.4314773163
     C     8.8702251447    6.8395019167    2.4735747496
