49
-1.4590049866330032e+03 frame 13   xyz file generated by TeraChem
    Fe    11.4780150786    8.5219339566    2.7838005973
     O    12.8838019679    8.9705295794    1.3942697277
     O    11.9691263142    6.5257724151    3.4741095447
     O    13.1735507692    5.3078309622    4.9389647394
     O    10.9761230169   10.6207434078    2.9840981387
     O     9.7647420099   12.1352039749    4.1130443763
     O    10.0698276941    7.7231580920    1.5486266115
     N    12.9787806931    8.8633503227    4.4124558118
     N     9.9645438802    8.5455724524    4.4398439266
     C    14.1321865103    9.1517401762    1.5135013441
     C    14.9451082386    8.8802615996    0.3728831821
     H    14.4451640289    8.5307124115   -0.5266601385
     C    16.3042073540    9.0616869508    0.3921414577
     H    16.8991093761    8.8439678376   -0.4951774498
     C    16.9207665710    9.5012170949    1.5619153213
     H    17.9950080220    9.6436730402    1.5732923841
     C    16.1316594657    9.7692164382    2.6934937638
     H    16.6311355409   10.1087485599    3.5943151273
     C    14.7429928516    9.6161813291    2.7242462687
     C    13.8686454806    9.9693693521    3.9268098284
     H    14.5112600321   10.3328066987    4.7423659690
     H    13.1916899021   10.7767875659    3.6431361283
     C    13.6879178590    7.6173519634    4.6682422218
     H    14.0617530988    7.5615919838    5.6957988254
     H    14.5542125825    7.5850391951    4.0051732601
     C    12.8668154601    6.3604201434    4.3515301841
     C    12.1158015253    9.2677181087    5.5344980791
     H    11.8466033954   10.3126396175    5.3993787311
     H    12.6627196632    9.1980647513    6.4868926995
     C    10.8224731986    8.4174379896    5.6295920172
     H    11.0935077352    7.3707802083    5.7439662478
     H    10.2689801760    8.7064552697    6.5358642472
     C     9.2487638137    9.8166156394    4.3924753194
     H     8.8643373773   10.1089222182    5.3751485100
     H     8.3893528949    9.6888755669    3.7318619239
     C    10.0710472661   10.9731136603    3.7960012493
     C     9.0819049163    7.3537984825    4.2234950500
     H     8.4429568049    7.1926827524    5.1043919282
     H     9.7653191142    6.5078211330    4.1377726175
     C     8.1925352923    7.3921009606    2.9788017364
     C     6.8050512141    7.2202439085    2.9730037245
     H     6.3180262631    7.1053642572    3.9352183001
     C     6.0189088851    7.1963908387    1.8094079487
     H     4.9469596851    7.0478895679    1.8669832948
     C     6.6448266187    7.3464494182    0.5747291813
     H     6.0793623529    7.3403730736   -0.3575443630
     C     8.0019457549    7.5329269527    0.5270764044
     H     8.5061629371    7.6607631171   -0.4273338444
     C     8.8206472172    7.5580910041    1.6952256450
