33
-1.1580608781783760e+03 frame 79   xyz file generated by TeraChem
    Ti    -1.3801748588    1.2988363864   -3.6989992800
     N    -0.0432218443    3.0702304915   -4.2744923606
     N    -2.6727710806    3.0450919238   -3.3189393191
     O     2.0495357648    0.6988294824   -5.6359667509
     O     0.1271289476    0.5335495516   -4.5006326025
     O     1.1864725661    2.6024765110   -0.8820585082
     O    -0.4643908689    1.7090507661   -2.0952493714
     O    -4.0786784519    0.7588794246   -0.8250158948
     O    -2.6729446471    0.4672577878   -2.5549507112
     O    -3.3234361250    2.9576536561   -6.8441107400
     O    -2.1444051495    1.6644636581   -5.4211484519
     C    -0.8287389409    4.3317996454   -4.3238846777
     C    -1.8343362794    4.2819762491   -3.1831381880
     C     1.0040276901    1.1902540356   -5.2799457097
     C     0.5654609221    2.6351519695   -5.5654505368
     C     1.0384527826    3.1326257259   -3.2560048892
     C     0.6080369683    2.4781583467   -1.9467294323
     C    -3.3759657753    2.7125704374   -2.0425982912
     C    -3.4457774804    1.2082094550   -1.7602789774
     C    -3.6322579767    3.2091244863   -4.4621109293
     C    -3.0255902341    2.6193699125   -5.7162908148
     H    -2.4716377037    5.1700703355   -3.1689407335
     H    -1.3137046404    4.2225777438   -2.2268314665
     H     1.4197094489    3.2607358806   -5.8409299202
     H    -0.1769075865    2.6754874171   -6.3657424587
     H    -2.7869726661    3.1158611594   -1.2159121143
     H    -4.3688912722    3.1642428497   -2.0014829676
     H    -4.5436741772    2.6443612502   -4.2488681895
     H    -3.9023424630    4.2603199337   -4.5921778884
     H    -0.1693570467    5.1983658543   -4.2118819496
     H    -1.3169119731    4.4178133085   -5.2959423753
     H     1.9048436960    2.5693410685   -3.6155360273
     H     1.3769576553    4.1571482958   -3.0920475721
