33
-1.1581902939825775e+03 frame 29   xyz file generated by TeraChem
    Ti     0.0781513503    2.7347854557   -3.4518904100
     N    -1.5421014476    3.7750224087   -4.6824261843
     N    -1.6861220244    1.6093288968   -2.7999236990
     O     1.0254252249    5.0325229914   -6.6976582258
     O     1.0014399932    3.9291657737   -4.7155827151
     O    -1.6640273003    6.3410149893   -2.2581954832
     O    -0.2017038231    4.5789193486   -2.4088706554
     O     0.3639236660    0.7803504906    0.0358608161
     O     0.7807575049    1.6963895459   -1.9393222122
     O    -1.1103248769   -0.2074628808   -5.8578150731
     O     0.1206132652    1.4257906202   -4.9012075710
     C    -2.7568626139    2.9265948367   -4.5672286080
     C    -2.9153623874    2.3731754416   -3.1536138866
     C     0.4618190782    4.3583293697   -5.8384070940
     C    -1.0055460707    3.9327647278   -6.0330495929
     C    -1.6583091182    5.1491952816   -4.1928938377
     C    -1.1531755952    5.3776271137   -2.8128272748
     C    -1.5069385653    1.4732471909   -1.3385992622
     C    -0.0233734260    1.2652417394   -1.0104229974
     C    -1.5823708282    0.3220157869   -3.5533365770
     C    -0.8272526202    0.5058941420   -4.9042657928
     H    -3.8100643086    1.7419243469   -3.0954958021
     H    -3.0362711954    3.1737057935   -2.4171451001
     H    -1.5597061880    4.6869628883   -6.6052965894
     H    -1.0503444107    2.9853876777   -6.5766775611
     H    -1.7857904146    2.4249995308   -0.8753682086
     H    -2.1202432454    0.6830251311   -0.8939597579
     H    -1.0074430365   -0.3927621972   -2.9564905716
     H    -2.5753643464   -0.1075179464   -3.7174622105
     H    -3.6548113639    3.4843186277   -4.8642664952
     H    -2.6450126730    2.0904198689   -5.2576711165
     H    -0.9785913638    5.7618575085   -4.7928756420
     H    -2.6674796389    5.5496504999   -4.3299047086
