33
-1.1715088066314331e+03 frame 52   xyz file generated by TeraChem
     V    -0.7747604786    1.5870702383   -3.7407588712
     N    -0.2240060061    3.5946105958   -4.2931373847
     N    -2.7511820256    2.4385756767   -3.3128972890
     O     2.7467650362    2.2384825952   -5.5839887003
     O     1.1385214242    1.2214544327   -4.3986552063
     O     1.0051926309    4.2171910646   -1.0764206126
     O     0.0444543693    2.3300131333   -1.9043947551
     O    -3.3717725969   -0.2715131154   -0.9578780521
     O    -1.8220075699   -0.0167597619   -2.5750679522
     O    -3.4743737504    1.9905371906   -6.8413790414
     O    -1.6764500651    1.4189357237   -5.6182801676
     C    -1.5073855675    4.3312918301   -4.3623061637
     C    -2.4515628820    3.8884478854   -3.2254835836
     C     1.5944231990    2.1814158686   -5.1316745676
     C     0.6168238014    3.3705498428   -5.4840300321
     C     0.6728463095    4.1574553300   -3.3083843866
     C     0.5326735865    3.5155257762   -1.9698052836
     C    -3.1527101815    1.8740451509   -2.0040224184
     C    -2.7820472559    0.3872066851   -1.8355699181
     C    -3.6497776510    2.0844751699   -4.4279837529
     C    -2.8906931843    1.8250244714   -5.7521030930
     H    -3.3724865144    4.4893148620   -3.2622837315
     H    -1.9971698956    4.0647547167   -2.2453232700
     H     1.2185776966    4.2628883262   -5.6949812967
     H     0.0070738151    3.1242520026   -6.3519140453
     H    -2.5533200820    2.3774119511   -1.2382792771
     H    -4.2099666873    2.0409344036   -1.7576822158
     H    -4.1636301784    1.1558193421   -4.1577731699
     H    -4.4182103349    2.8571322486   -4.5602979291
     H    -1.3472704155    5.4158946871   -4.2808564687
     H    -1.9804808106    4.1260206557   -5.3196530736
     H     1.7065624156    3.9383348969   -3.5850547105
     H     0.5948867491    5.2450913234   -3.2059697794
