33
-1.1713883435884106e+03 frame 1   xyz file generated by TeraChem
     V    -0.1470639966    2.1199013617   -3.5966602461
     N    -0.9551383784    4.0079119729   -4.4035892376
     N    -2.2395714272    1.7893864488   -3.1384040061
     O     2.1744323142    4.2414045471   -6.0385009396
     O     1.4095801529    2.8301853514   -4.5505800514
     O    -0.1900029826    5.2381813353   -1.0249778376
     O     0.2203887674    3.3480383345   -2.0549326159
     O    -0.9727470980   -0.6055607481   -0.7748378112
     O    -0.0147944283    0.5531380208   -2.4009622110
     O    -2.4250286547    0.5508814361   -6.4683347895
     O    -0.6779160978    1.3200590201   -5.3166500647
     C    -2.4268177212    3.8285822151   -4.5196324266
     C    -2.9487464927    3.0903606602   -3.2826855923
     C     1.2171749558    3.7720483725   -5.4392159331
     C    -0.2484938562    4.1914398896   -5.6913135742
     C    -0.5438496454    5.1050638087   -3.4725678984
     C    -0.1850783132    4.5813305174   -2.0716257899
     C    -2.2401141450    1.2195244385   -1.7752705418
     C    -1.0265712182    0.2816428261   -1.6182238186
     C    -2.7135832605    0.7978186833   -4.1238874081
     C    -1.9094269430    0.9032028363   -5.4158554874
     H    -4.0314058242    2.9362244816   -3.3665313257
     H    -2.7687035873    3.6798059162   -2.3823638657
     H    -0.3145277409    5.2212878845   -6.0584402868
     H    -0.6768268604    3.5245631899   -6.4464003441
     H    -2.0946562387    2.0453246081   -1.0747539407
     H    -3.1761973763    0.7084620066   -1.5304877451
     H    -2.5565451823   -0.2115946107   -3.7309289809
     H    -3.7837914476    0.9142391388   -4.3215995520
     H    -2.9329918372    4.7948852645   -4.6352106436
     H    -2.6271999473    3.2478177941   -5.4235570895
     H     0.3914837405    5.5203707579   -3.8635743225
     H    -1.2777323297    5.9159574403   -3.4517338221
