33
-1.1864659345151092e+03 frame 52   xyz file generated by TeraChem
    Cr    -0.6181025680    1.3659951733   -3.7501873635
     N    -0.2625668186    3.7148853617   -4.2676858503
     N    -2.7505850831    2.4048076207   -3.3739193349
     O     2.8028848680    2.5998434936   -5.5855979224
     O     1.2796792433    1.4723554557   -4.3985302125
     O     0.8003868999    3.9940835190   -0.9012842070
     O     0.1250015730    2.1562322704   -2.0028328166
     O    -3.3910418836   -0.1397068723   -0.8318337803
     O    -1.8271730709   -0.0630487341   -2.4464242700
     O    -3.1847922387    1.5623476269   -6.9102243060
     O    -1.4784461266    1.1253916195   -5.5229823662
     C    -1.5721117423    4.3408772018   -4.4105434163
     C    -2.5268802762    3.8574004002   -3.3121405185
     C     1.6623719599    2.4683450048   -5.1187581860
     C     0.6065496606    3.5761050822   -5.4266656199
     C     0.5262952837    4.2339458505   -3.1820358630
     C     0.4512934098    3.3982155693   -1.9225591518
     C    -3.1585645470    1.8863868132   -2.0591364392
     C    -2.7874048311    0.4241392004   -1.7670235416
     C    -3.5307071758    1.9518153615   -4.5351900821
     C    -2.6832081303    1.5292346844   -5.7697928389
     H    -3.4778792733    4.4099300964   -3.3824021407
     H    -2.1059388729    4.0934011376   -2.3286174142
     H     1.1489440103    4.5073747748   -5.6424437323
     H     0.0261576550    3.2899903898   -6.3072109121
     H    -2.5764816917    2.4403580922   -1.3110829110
     H    -4.2186794480    2.0566333324   -1.8169288954
     H    -4.1133878053    1.0777726027   -4.2188897842
     H    -4.2525630764    2.7210627176   -4.8394682380
     H    -1.5115741892    5.4411690815   -4.3590471729
     H    -1.9843570345    4.0762628621   -5.3854922152
     H     1.5884652324    4.2087562769   -3.4473684840
     H     0.3019531877    5.2795218332   -2.9299900131
