33
-1.2235729321022247e+03 frame 32   xyz file generated by TeraChem
    Fe    -1.3075827882    1.3689776517   -3.6604591747
     N     0.0072512685    3.1166321504   -4.2866034597
     N    -2.7348202878    3.0607053346   -3.3000537380
     O     2.1151463790    0.7686131770   -5.7713670242
     O     0.3364762404    0.4441601091   -4.4609466348
     O     1.3655965136    2.8520054157   -0.9695068185
     O    -0.3031078519    1.6841130869   -1.9151503832
     O    -4.4414941854    0.8519051526   -0.9353141253
     O    -2.8500266488    0.3780135206   -2.4475862174
     O    -3.4199210347    3.1414141085   -6.8054915338
     O    -2.2451711511    1.6185761177   -5.6316082971
     C    -0.8331590538    4.3169434161   -4.3179613628
     C    -1.8757381490    4.2612083782   -3.1913484551
     C     1.0573570256    1.1588030520   -5.2601649272
     C     0.6108249313    2.6367139104   -5.5356595527
     C     1.0604277312    3.1403643277   -3.2780499116
     C     0.6630765718    2.5335087758   -1.9367271075
     C    -3.3800727334    2.6917183868   -2.0297277128
     C    -3.6128930378    1.1772774598   -1.8076951534
     C    -3.6607662509    3.1520270607   -4.4424925681
     C    -3.0545739925    2.6084369404   -5.7425503272
     H    -2.4761375872    5.1826649345   -3.2096005439
     H    -1.3760735343    4.2145551989   -2.2202251452
     H     1.5022441410    3.2237884020   -5.8012663964
     H    -0.1033195536    2.7069859577   -6.3597057705
     H    -2.6772018936    2.9434539316   -1.2293919198
     H    -4.3107445111    3.2421441185   -1.8484424904
     H    -4.5522282859    2.5516996160   -4.2337081417
     H    -3.9888478355    4.1905718894   -4.5863356447
     H    -0.2377731473    5.2376696049   -4.2151725594
     H    -1.3416827597    4.3671187095   -5.2825653737
     H     1.8782439854    2.5036831538   -3.6282759439
     H     1.4942282855    4.1354319505   -3.1231353853
