33
-1.2451922104775444e+03 frame 3   xyz file generated by TeraChem
    Co    -1.3057014374    1.4588330464   -3.7136078541
     N     0.0997835140    3.0954560570   -4.2249728998
     N    -2.6915168078    3.1174375432   -3.3018286997
     O     1.9636053574    0.6799438453   -6.0427796996
     O     0.2622273317    0.4275832462   -4.5898852042
     O     1.0935554497    2.9370579250   -0.6946614805
     O    -0.4405573153    1.7561045420   -1.8347376069
     O    -4.3474225537    0.7660491948   -1.1120531064
     O    -2.8324545265    0.4204927000   -2.7275889498
     O    -3.8254154183    2.9170570221   -6.7339194214
     O    -2.2360980161    1.7600419330   -5.6319373868
     C    -0.7610126122    4.2839214243   -4.3779218970
     C    -1.8389717494    4.3215166561   -3.2881830535
     C     1.0264816972    1.1256517049   -5.3622033213
     C     0.7148463347    2.6338839369   -5.4807967986
     C     1.0724583297    3.1400001849   -3.1187344590
     C     0.5356784384    2.5891387695   -1.7584428465
     C    -3.2452296850    2.6987725356   -2.0154135452
     C    -3.5234225939    1.1680531802   -1.9488652136
     C    -3.7136420967    3.1414084950   -4.3651521126
     C    -3.2212176663    2.5749547172   -5.6990785209
     H    -2.4318251066    5.2402412593   -3.4076858778
     H    -1.3551029221    4.3751375227   -2.3121817947
     H     1.6360544849    3.1741836342   -5.7425946258
     H    -0.0051975525    2.7809655567   -6.2969406474
     H    -2.4875674938    2.8901504228   -1.2549355964
     H    -4.1550958041    3.2499224196   -1.7537250667
     H    -4.5481176020    2.4984046431   -4.0674273955
     H    -4.1257171993    4.1502898582   -4.5119148434
     H    -0.1771081588    5.2164339974   -4.3257312396
     H    -1.2225944822    4.2509101647   -5.3696082871
     H     1.9009243255    2.4768099336   -3.4010236696
     H     1.4929103369    4.1450768280   -2.9977568789
