33
-1.2694412287669156e+03 frame 64   xyz file generated by TeraChem
    Ni    -1.2432703328    1.5314340992   -3.8709476902
     N     0.0617230088    3.0910819407   -3.2890251248
     N    -2.7224263291    3.0928957129   -4.1725284730
     O     2.7001941377    0.7963470687   -4.1230418965
     O     0.4941620410    0.4473562514   -3.8621949985
     O    -0.9804835803    2.6084491334    0.2328493738
     O    -1.6329906629    1.5212842061   -1.6538566054
     O    -5.2316492731    0.5664379102   -3.8071721517
     O    -3.0095582093    0.4294616629   -4.1218454682
     O    -1.3090547170    3.4333453409   -7.3928720622
     O    -0.8393693200    1.9833781814   -5.7679445474
     C    -0.6108761072    4.3249320032   -3.7374320551
     C    -2.1237402076    4.2566970709   -3.4886072380
     C     1.5338788778    1.1984978564   -3.9935797454
     C     1.2921055716    2.7336951520   -4.0228498978
     C     0.2539049607    2.9976214457   -1.8244694774
     C    -0.8975376361    2.3425311158   -0.9972565039
     C    -3.9346599326    2.5612717008   -3.5451995376
     C    -4.0933752711    1.0617194993   -3.8567254128
     C    -2.8449391378    3.2868916787   -5.6121303986
     C    -1.5611110594    2.8845152858   -6.3162529424
     H    -2.5838260071    5.1987663943   -3.8223096965
     H    -2.3211237789    4.1536110079   -2.4214574520
     H     2.1749039191    3.2612529849   -3.6442200025
     H     1.1489666586    2.9935788994   -5.0744103429
     H    -3.8135645278    2.6386783210   -2.4627663964
     H    -4.8406817465    3.1100828290   -3.8348446623
     H    -3.6465607789    2.6521407309   -6.0063075013
     H    -3.1075294412    4.3231002250   -5.8604026512
     H    -0.1967631539    5.2124939609   -3.2400219852
     H    -0.4237800503    4.4378562582   -4.8082817066
     H     1.1219355902    2.3502327360   -1.6647828248
     H     0.4946337953    3.9802465361   -1.4014017253
