33
-1.2692592331491792e+03 frame 36   xyz file generated by TeraChem
    Ni    -1.3838998262    1.5853101960   -3.7751329500
     N    -0.0553058833    3.0332610121   -3.0218976984
     N    -2.4937011232    3.2546026453   -4.5044439731
     O     2.3282236416    0.3599487649   -2.9808777361
     O     0.1061243611    0.3749092997   -3.2275458903
     O    -2.0222612371    2.6896290354    0.0483626023
     O    -2.1707978700    1.6787090533   -1.9715692983
     O    -5.3402179586    1.0525579841   -4.4805562225
     O    -3.1456517919    0.6288895416   -4.3392492376
     O    -0.4211558054    2.6100498656   -7.3657759512
     O    -0.5973319525    1.6046975926   -5.3934248208
     C    -0.4217708359    4.2852200690   -3.6994148203
     C    -1.9321930500    4.4150886449   -3.7948741306
     C     1.2653134012    0.9502427959   -3.1834943061
     C     1.2605125745    2.4763009993   -3.3866804349
     C    -0.2573260853    3.0429530934   -1.5525542334
     C    -1.5868574849    2.4538347581   -1.0871886569
     C    -3.8772774019    2.9088233517   -4.1344046136
     C    -4.1665997796    1.4106029644   -4.3363662560
     C    -2.2467322366    3.2538417989   -5.9493922520
     C    -0.9970329316    2.4659644077   -6.2910602183
     H    -2.1916978281    5.3560615229   -4.2943265079
     H    -2.3747581818    4.4438897357   -2.7977992233
     H     2.0688678938    2.9292520119   -2.8044466800
     H     1.4415722299    2.6614836256   -4.4465790083
     H    -3.9982424371    3.1117971910   -3.0695923987
     H    -4.6129302315    3.4952955290   -4.6941829001
     H    -3.0847809736    2.7653787725   -6.4551402339
     H    -2.1748175647    4.2694011734   -6.3495782005
     H    -0.0073528005    5.1555705328   -3.1769151436
     H     0.0189218222    4.2685274156   -4.6984040269
     H     0.5204399834    2.4181300198   -1.1043287662
     H    -0.1417453363    4.0516597960   -1.1454556125
