43
-1.3425377462402648e+03 frame 29   xyz file generated by TeraChem
    Cr     2.1230125188    0.7109044419    1.2369673410
     C     4.9607364712   -0.7584547796    1.9375094261
     C     4.5869079044    2.2898643089    0.7435634180
     C     2.7987435433   -2.1924407196    0.3746174114
     C     2.2140763499   -2.2171983315    1.7804448085
     C     3.1437469940   -0.4907620938   -1.3437900876
     C     1.6708734057   -0.0446614141   -1.5262943237
     C     4.8563348736   -0.8759887405    0.4106117788
     C     5.7055904178   -2.0240934345   -0.1416520754
     C     7.1374564539   -2.0197698552    0.3784632769
     C     7.1317761459   -2.0847742937    1.9024789633
     C     6.3951112411   -0.8824411849    2.4581024868
     C     3.8408048074    0.4313187670    3.7898370433
     C     2.6882144326    1.4203676013    4.0643389844
     C     5.0001006917    1.6810656082    2.0607298281
     H     4.3952297050   -1.5939310018    2.3585539478
     H     1.9701708028   -2.3612535928   -0.3164506375
     H     3.4465525415   -3.0664425072    0.2847370818
     H     3.7439125130    0.3959989741   -1.5577681220
     H     3.3699580029   -1.2489672997   -2.1043176436
     H     5.2555340288    0.0515044697   -0.0094162140
     H     5.2583362281   -2.9782074586    0.1464443096
     H     5.6739477681   -1.9820549822   -1.2333499979
     H     7.6545479807   -1.1071800264    0.0577573684
     H     7.6940231480   -2.8615811741   -0.0451678124
     H     6.6377719696   -3.0111365062    2.2209408559
     H     8.1511039051   -2.1194600286    2.3015413140
     H     6.3662203342   -0.9040074477    3.5518676041
     H     6.9608545458    0.0103820564    2.1824086962
     H     3.4342570742   -0.5585332268    4.0072731880
     H     4.6448731204    0.6328171269    4.5108803632
     H     4.7716943306    2.4228141926    2.8307684046
     H     6.0883006456    1.5882794777    2.0550126243
     N     4.3070996991    0.4544294196    2.4024681772
     N     3.4470189651   -0.9402076895    0.0036632591
     O     1.9530964221    1.7289872378    3.0641386009
     O     2.5445791505    1.8144381429    5.2354784532
     O     3.3888698343    2.0473636206    0.4234521227
     O     5.3999945275    2.9984999255    0.1292532389
     O     1.7589094467   -1.1155045777    2.1959877325
     O     2.1814091614   -3.3059127882    2.3779719131
     O     1.0471052521    0.3812632903   -0.5072461912
     O     1.2091460457   -0.1083095068   -2.6757139170
