43
-1.3794784401786565e+03 frame 28   xyz file generated by TeraChem
    Fe     3.6091900090    1.4697051593    1.0246195082
     C     4.6535197304   -0.7546572982    2.0560405193
     C     6.5899570687    0.9173067774    0.1642969295
     C     2.0709370904   -1.0130254709    0.1876015805
     C     1.5694155629   -0.3727472942    1.5212384786
     C     3.6553201130   -0.8244795394   -1.4868346885
     C     2.8937464167    0.3608560690   -1.9241600597
     C     4.4918374545   -1.4218998946    0.6542458159
     C     4.2690836698   -2.9378395348    0.7161753099
     C     5.3402327878   -3.5846550382    1.5634829522
     C     5.3851502922   -2.8779938018    2.9209760620
     C     5.6808669642   -1.4119003417    2.8118858937
     C     4.4515666621    1.5084202513    3.2757550973
     C     4.0856079483    3.0411891730    3.0802731779
     C     6.3449431663    1.0279994738    1.6565363500
     H     3.7024358941   -0.8627799428    2.5632535406
     H     1.5906840751   -0.5112540583   -0.6817547880
     H     1.7915877122   -2.0723031981    0.0879363575
     H     4.7231200955   -0.7409353487   -1.7687763717
     H     3.3053609385   -1.7570987204   -2.0197829699
     H     5.4303698078   -1.2273743698    0.1065595420
     H     3.3054850556   -3.1098606328    1.2027031676
     H     4.1882971040   -3.3979484820   -0.2863105266
     H     6.3266444536   -3.4966617708    1.0996146549
     H     5.1309684556   -4.6542652306    1.6718388634
     H     4.4114606110   -2.9810740925    3.4273393778
     H     6.1397600393   -3.3180492875    3.5575855755
     H     5.6936664793   -0.9080286970    3.7736780083
     H     6.6598021295   -1.2408447818    2.3503101125
     H     3.5078576446    1.0950550745    3.5830723309
     H     5.1932696537    1.4922230805    4.0323509903
     H     6.5374739771    2.0795422193    1.8468949365
     H     7.1183851221    0.4532578831    2.1336237592
     N     4.9024861626    0.6878263375    2.1215703573
     N     3.4575127703   -0.7503447139   -0.0179796583
     O     3.7408342244    3.1589744177    1.9000608044
     O     4.0813468314    3.9808793366    3.8612857544
     O     5.5500320561    1.4328913493   -0.2238292171
     O     7.5872163369    0.4666924583   -0.4608213042
     O     1.8610197562    0.8086463012    2.0773545886
     O     0.7460329925   -1.1455937911    2.0181182115
     O     2.6912969879    1.3204176750   -1.0192872834
     O     2.5422207973    0.2787558953   -3.1416447407
