43
-1.4012583404124512e+03 frame 24   xyz file generated by TeraChem
    Co     3.6122742566    1.4256412114    0.5842102864
     C     4.7031795934   -0.7459994125    2.0557468539
     C     6.5037671162    1.0600657993    0.0587006320
     C     2.0422815513   -1.0503948779    0.1565916053
     C     1.4256488894   -0.3313051004    1.3352621150
     C     3.6491413956   -0.7559933561   -1.4810373031
     C     2.8725935528    0.4793497486   -1.9235563939
     C     4.5051506767   -1.4295767911    0.7039275138
     C     4.2550535212   -2.9403787252    0.8515679039
     C     5.3231823129   -3.6241720922    1.7072345493
     C     5.4333199389   -2.9162662338    3.0584932956
     C     5.7725107692   -1.4472788411    2.8631622476
     C     4.5249645165    1.3736699790    3.2967979312
     C     4.1190498333    2.8496371245    3.2076264914
     C     6.3197688027    1.1450556849    1.5720696679
     H     3.7618041572   -0.8219886669    2.6015910441
     H     1.5378152017   -0.6322147867   -0.7246100873
     H     1.7951358756   -2.1181823082    0.1443252735
     H     4.7024917877   -0.6599077172   -1.7671148608
     H     3.2641675073   -1.6528632660   -2.0009243222
     H     5.4333005506   -1.2817431362    0.1365884136
     H     3.2909872683   -3.0728789826    1.3586115621
     H     4.1562268554   -3.4128965387   -0.1350675463
     H     6.2999782731   -3.5787575972    1.2080471182
     H     5.0746132549   -4.6838148948    1.8357604235
     H     4.4767474502   -2.9846184555    3.5981322176
     H     6.1956812487   -3.3825168736    3.6873905050
     H     5.8495441293   -0.9231250569    3.8199463570
     H     6.7432974080   -1.3450698720    2.3628592903
     H     3.6133620305    0.8547435960    3.5866325062
     H     5.2882184385    1.2885877189    4.0679238630
     H     6.4401898932    2.2093165788    1.7897681805
     H     7.1315124428    0.6082842783    2.0613010095
     N     4.9643267916    0.7228056783    2.0275289817
     N     3.4612449940   -0.7533857785   -0.0624226753
     O     3.7940972021    3.1369009228    1.9675209862
     O     4.1202893019    3.6178165050    4.1729155291
     O     5.4425743939    1.3912842469   -0.5528171740
     O     7.5957842015    0.7595140076   -0.4579114022
     O     1.9225962285    0.8074160279    1.7026851240
     O     0.4466298654   -0.8886492365    1.8568435113
     O     2.6565532831    1.5118765711   -1.1977241787
     O     2.4869460383    0.3990371185   -3.1174798457
