35
-1.1875780099482199e+03 frame 52   xyz file generated by TeraChem
    Cr     6.9048450863    4.6793765927    6.3696230197
     O     8.0191829597    3.3745856004    7.3109725949
     O     6.6881602769    3.4679209655    4.8299885689
     O    10.0676160329    3.1963043986    8.2075139757
     O     7.4483339569    3.1301698720    2.7017812274
     N     8.7433379925    5.1547225222    5.4357796952
     C     9.2772389423    3.7013116670    7.4107693231
     C     7.5734430428    3.5445895496    3.8678211602
     C     9.7127712094    4.8818451523    6.5301084380
     C     8.8933341669    4.2224400252    4.2747949251
     C     8.8608908076    6.5582253448    4.9714386762
     H    10.7302605219    4.7481858005    6.1482156519
     H     9.7079602902    5.7544019930    7.1906363639
     H     9.2810774697    4.7800119803    3.4187161566
     H     9.6234330889    3.4406920610    4.5072034556
     H     9.8731112676    6.7459635289    4.5929043338
     H     8.6501112265    7.2278429132    5.8064460787
     H     8.1344223946    6.7353021045    4.1775942906
     O     5.7928713038    6.0915417547    5.5101956157
     C     4.5053332837    5.9210591536    5.5453153303
     O     3.6681689335    6.7653536792    5.2284390597
     C     4.0980672695    4.5211492057    5.9904128530
     N     5.0450291687    4.1358451849    7.0734621865
     O     7.0707817630    5.9570335990    7.7536517306
     C     6.0944435096    5.8881098340    8.6170705159
     O     6.0829922585    6.4590060096    9.7090905747
     C     4.8549123348    5.0464113619    8.2457593931
     C     4.9279554602    2.6969896256    7.3923375475
     H     3.9042820229    2.4595827581    7.7047908494
     H     5.1732357631    2.1338609734    6.4892546796
     H     5.6354850192    2.4427586355    8.1803837882
     H     4.5102914918    4.4819032671    9.1134428574
     H     4.0698334269    5.7711526524    8.0068498354
     H     3.0672371349    4.5008151299    6.3571365550
     H     4.2089141224    3.8237209037    5.1566615924
