35
-1.1876688848608919e+03 frame 44   xyz file generated by TeraChem
    Cr     6.9111827451    4.6710710202    6.4118132916
     O     8.3001132426    3.3334793026    7.1565741862
     O     6.8680273061    3.6672368253    4.6190506512
     O    10.3686032958    3.2342837917    8.0207112517
     O     7.6295270697    3.4160652036    2.4751868399
     N     9.0792536004    5.2028019031    5.2563093814
     C     9.5252970367    3.7166396137    7.2450041019
     C     7.7666976389    3.7269692275    3.6884990472
     C     9.9529000158    4.9332654831    6.3948522728
     C     9.1567592462    4.2265136034    4.1612788942
     C     9.2103351882    6.5721106875    4.7640309847
     H    11.0155984985    4.8246217840    6.1246925833
     H     9.8835823524    5.7981937692    7.0678552095
     H     9.6843941653    4.6545725849    3.2997388141
     H     9.7375982253    3.3512505791    4.4795634727
     H    10.2065701083    6.7711121820    4.3316405562
     H     9.0374243065    7.2763821468    5.5833812877
     H     8.4577228811    6.7528021934    3.9900785305
     O     5.5469085222    6.1304430451    5.6939902672
     C     4.2933779572    5.8622140088    5.6550800284
     O     3.3993403317    6.6464784371    5.2920643507
     C     3.8936507204    4.4415081819    6.0902813974
     N     4.7202188917    4.0780860998    7.2417076207
     O     6.8868389901    5.7478437614    8.0202284049
     C     5.8541469833    5.7587452665    8.7924838648
     O     5.8053192240    6.3299329949    9.8978421145
     C     4.5603698584    5.0490458991    8.3338659928
     C     4.5894940034    2.6849453635    7.6547690406
     H     3.5707375410    2.4383028556    8.0005700425
     H     4.8382828452    2.0342789063    6.8108431812
     H     5.2938997893    2.4831614975    8.4670874154
     H     4.0683401814    4.6029407838    9.2045851900
     H     3.8975849642    5.8573498557    8.0013934805
     H     2.8177552635    4.4345007332    6.3253816473
     H     4.0715120100    3.7310362086    5.2741275042
