36
-1.2845311428454415e+03 frame 26   xyz file generated by TeraChem
    Co     8.7108163457    6.6476563919   10.4311463963
     O    10.1121186302    8.0838453598   10.9513231017
     O    12.3241439219    8.4404751724   11.1271150150
     O     9.2179493550    6.5397264887    8.2755015492
     O     8.7647931472    5.3934380480    6.3624497881
     N    10.4918614775    5.3719339875   10.8592032306
     C    11.5895237201    6.2648171782   10.4480917403
     C    11.3431285593    7.7185726890   10.8906276235
     C    10.5307666454    5.0757756598   12.2990993175
     C     8.5620715094    5.6872249091    7.5689650963
     C    10.4620468447    4.1659203244   10.0196533552
     C     9.2696350305    3.2065188920   10.1559061801
     O     6.8943078600    7.6710102619   10.3221983154
     C     5.8532066716    6.9159046433   10.2890864945
     O     4.6772758659    7.3091900502   10.2418308169
     C     6.1118911477    5.3996373177   10.3834149423
     N     7.4038575859    4.9932024719    9.7876069218
     C     7.3652360817    5.0092377438    8.3040712419
     C     7.8485061597    3.7281936392   10.4112286205
     C     9.1593829193    5.1755382696   12.9685182646
     O     8.3051009399    5.9368454913   12.4009209208
     O     8.9810616539    4.5324468220   14.0087575035
     H     7.1547105711    2.9167909080   10.1362776506
     H     7.7364504163    3.8844868348   11.4825448732
     H     9.2846363645    2.6058256767    9.2403313456
     H     9.4582217787    2.4996221197   10.9743915624
     H    10.5107602671    4.5191658323    8.9915037312
     H    11.3745892075    3.5706525650   10.1944498503
     H     6.1637075193    5.1846629691   11.4551743986
     H     5.2678778521    4.8408528298    9.9608954379
     H     6.4875939871    5.5989765398    8.0179793408
     H     7.2188673535    3.9996722573    7.9025623575
     H    12.5648436673    5.9190249826   10.8165612741
     H    11.6186956573    6.2771978092    9.3561321380
     H    10.9756015597    4.0918123332   12.4927462360
     H    11.1683869262    5.8099807308   12.8067953681
