36
-1.2843789034790329e+03 frame 63   xyz file generated by TeraChem
    Co     9.9075631551    4.7394984686   10.1803409163
     O    11.6260200612    4.4437584946   10.9674869105
     O    12.2449388746    4.3106784403   13.1906795362
     O     9.0604088619    3.1466035868   10.9357974250
     O     7.1332266568    2.0475034881   11.0145638205
     N     9.3450885939    5.8254988473   11.7142230537
     C    10.0848810115    5.1027241799   12.7623686037
     C    11.5049575895    4.6451865223   12.2597082628
     C     9.8802203659    7.2082518733   11.5243438745
     C     7.8643926798    2.9040304933   10.5124858753
     C     7.8817935247    5.8246778598   11.9232643500
     C     7.0566615454    6.4268054555   10.7714300304
     O    10.4569221800    3.8034533373    8.6904164764
     C     9.8339394994    3.9937343625    7.5408697745
     O    10.1682033523    3.2255835535    6.5991784113
     C     8.7279847080    4.9832765522    7.6307174437
     N     8.2544017494    4.9590023221    9.0566092780
     C     7.4039266857    3.7508449682    9.3139647778
     C     7.5526134143    6.2309957456    9.3371792107
     C    10.3337180246    7.4247829046   10.0771503511
     O    10.4706988389    6.3292418447    9.4103503102
     O    10.5405174085    8.5560732282    9.6430949554
     H     6.6990185111    6.3256915659    8.6537011533
     H     8.2497789287    7.0216469642    9.0719253373
     H     6.0504537406    6.0136214067   10.8791889614
     H     6.9507682809    7.5075194152   10.9016485984
     H     7.5942143675    4.7879988430   12.0809082068
     H     7.6511065125    6.3600183331   12.8501675813
     H     9.1422851457    5.9624002946    7.3836741656
     H     7.9027456848    4.7688673004    6.9459070113
     H     7.4302688860    3.1014992583    8.4339684515
     H     6.3654057892    4.0500325881    9.4613317869
     H    10.1794989411    5.6890949562   13.6781615940
     H     9.5175233375    4.1950932290   12.9653201100
     H     9.1457221441    7.9625912660   11.8079259961
     H    10.7517561488    7.3575542505   12.1650093981
