19
-8.0839825187429642e+02 frame 8   xyz file generated by TeraChem
     C    -0.4482584856   -1.0233869970    0.0000176472
     C     0.9182457176   -1.1720387253    0.0000021243
     C     1.7337410340   -0.0204624761   -0.0000495928
     C     1.1892843740    1.2795502936   -0.0000886025
     C    -0.1786844584    1.4217323501   -0.0000744811
     C    -1.0399700976    0.2801312508   -0.0000186768
     C    -2.4416963986    0.5043106096    0.0000010708
     C    -3.4190048797   -0.4754160085    0.0000711191
     C    -4.8652497309   -0.1833680072    0.0000993214
     H    -5.3344070626   -0.6589068508   -0.8742368318
     H    -5.0811032661    0.8869783879    0.0000642081
     H    -5.3343594446   -0.6588405786    0.8744968383
     H    -3.1330952034   -1.5243191522    0.0001115708
     H    -2.7690654827    1.5416199215   -0.0000370458
     H    -0.6218578278    2.4121649727   -0.0001038339
     H     1.8446703395    2.1424871592   -0.0001294698
    Cl     3.4479025585   -0.2098542917   -0.0000677314
     H     1.3733234806   -2.1555410447    0.0000286223
     H    -1.0727796662   -1.9083592133    0.0000564437
