35
-1.0220864860017575e+03 frame 216   xyz file generated by TeraChem
    Co     9.0070841618    4.0391826289    1.1365420902
     N     9.9534343768    4.2728739766   -0.2584543760
     N     7.8955818813    5.5545431301    0.6513819521
     C     6.9419080968    6.0103749161    1.4629641685
     H     6.7244635881    5.5361066069    2.4334739382
     C     6.2533551781    7.1230562687    1.0541672886
     H     5.4685368973    7.5438830602    1.6889955336
     C     6.6519278310    7.6457536771   -0.1756049545
     H     6.1112972011    8.5271903053   -0.4725908759
     C     7.7409149019    7.0853346245   -0.9699045576
     C     8.4419252616    7.3698856462   -2.1788321005
     H     8.0554539965    8.2208672798   -2.7001948204
     C     9.5622948330    6.6660794429   -2.6520514692
     H     9.9997351359    7.0224442171   -3.5540985324
     C    10.2052428329    5.5387186610   -2.0189895997
     C    11.3693098639    4.6523343362   -2.1716273116
     H    12.0025667536    4.8202922251   -3.0090681727
     C    11.7568530910    3.6164845945   -1.3014351801
     H    12.6053868134    2.9421918810   -1.3267172991
     C    10.9377316361    3.4369238600   -0.2529652810
     H    11.0370845186    2.7146585556    0.5604149231
     C     8.3287794811    5.9775812408   -0.4423749503
     C     9.4864442792    5.2538275506   -0.9357695252
     O     7.7874096326    2.4176793983    0.5842506467
     H     7.1602283611    2.1083835445    1.2852143553
     H     7.3613583124    2.3278054167   -0.2551220384
     O    10.2055294464    2.4509042840    1.9766031892
     H    10.2568131775    1.5436938049    1.6734861546
     H    11.1283706755    2.6566255858    2.2492466204
     O     8.1484188407    3.8724508103    3.2857740988
     H     7.3022191749    4.1197572525    3.7166095809
     O    10.4432420635    5.3560686492    2.0737917206
     H    10.2426300421    5.6657044273    2.9963226262
     H    10.8173556322    6.1423019803    1.6487883138
     H     8.4540781073    3.1662613742    3.8961206530
