28
-9.9692864998625055e+02 frame 46   xyz file generated by TeraChem
    Co     7.6012958664    1.4547244768   11.0849990572
     O     9.4027714378    0.4834636655   10.9059930402
     N     6.9377650758   -0.3253903242   10.0000832659
     H     6.6205755445   -1.1174352222   10.5504000527
     H     6.1844488582   -0.0546398939    9.3782126578
     C     9.4304324919   -0.4902161704   10.0642167435
     C     8.1487722117   -0.6804402904    9.2244738295
     H     8.2101776032    0.0192490489    8.3900647875
     H     8.1242474583   -1.6969408024    8.8230893825
     O    10.3830296643   -1.2546962942    9.8650509168
     O     8.1085635767    3.0755160755   12.3474622164
     C     6.2160942621    3.3589632503    9.2496590932
     O     7.1716866639    2.5043057683    9.2397127546
     N     7.7240250402    0.6246837421   13.0449680745
     H     7.2638794910   -0.2357152829   13.3228819231
     H     8.6985792532    0.4046843968   12.8486626576
     C     7.9172532248    3.0161625807   13.6049463029
     N     5.5808918502    2.3631131913   11.4630481920
     H     4.7934553839    1.7608405324   11.2418618221
     H     5.4947979452    2.6445964537   12.4323845014
     C     7.6008241817    1.6103477785   14.1117348606
     H     8.2255489199    1.4025587710   14.9863553071
     H     6.5662044613    1.6157341756   14.4635920308
     C     5.5656642620    3.5731703910   10.6141553610
     H     6.1807380015    4.3123000170   11.1278282408
     H     4.5640930727    3.9854727243   10.4726329182
     O     7.9266548216    3.9421896691   14.4292427497
     O     5.8029781760    4.0124396715    8.2831958602
