51
-1.4411466527264533e+03 frame 17   xyz file generated by TeraChem
    Co     9.1050646840    4.1977661679    3.2485838683
     N    10.9149081470    4.0800241279    4.3292146357
     N    10.2199016839    5.6530280635    2.1705682664
     C     9.8780149792    6.4269408885    1.1449894947
     H     8.8998985733    6.2542685253    0.7163132721
     C    10.7246343067    7.4121242081    0.6292028271
     H    10.3983802751    8.0082208889   -0.2111694924
     C    11.9591127863    7.6065949357    1.2024687264
     H    12.6326016376    8.3629434226    0.8203344263
     C    12.3489785375    6.8147126973    2.2968970746
     C    13.6144458197    6.9500119916    2.9412363838
     H    14.3018409809    7.7004661792    2.5735189559
     C    13.9599769683    6.1556573906    3.9879102323
     H    14.9285765113    6.2648870215    4.4573432587
     C    13.0690835639    5.1583775148    4.4833527784
     C    13.3931292670    4.2990087472    5.5494996766
     H    14.3592522122    4.3889477634    6.0290615003
     C    12.4908152859    3.3446089394    5.9590863400
     H    12.7192725226    2.6599565144    6.7630200864
     C    11.2572937197    3.2620940409    5.3172882693
     H    10.5324314550    2.5146972030    5.6100720960
     C    11.4395906248    5.8383335060    2.7589077597
     C    11.7986800923    5.0168269765    3.8876564699
     N     7.2946683414    4.3679395983    2.2788963872
     C     6.8752422025    3.7529543446    1.1763861109
     C     5.6179624972    3.9904515450    0.6182815610
     C     4.7746015264    4.8862196626    1.2350758148
     C     5.1827620056    5.5393230463    2.4149491996
     C     4.3543367648    6.4679297289    3.1130625796
     C     4.7822621920    7.0701186744    4.2547547955
     C     6.0734807129    6.7974327637    4.8001143085
     C     6.5572938570    7.3965668933    5.9773886391
     C     7.8172858872    7.0811201074    6.4360528624
     C     8.5987286734    6.1647640061    5.7247936118
     N     8.1645052396    5.5721810127    4.6175778892
     C     6.9213319602    5.8801298478    4.1405478602
     C     6.4721260837    5.2529899907    2.9180770063
     H     9.5943692700    5.9038805845    6.0581042325
     H     8.2141890996    7.5323765984    7.3339422119
     H     5.9361450192    8.1031195635    6.5122546361
     H     4.1415706804    7.7709839571    4.7730495241
     H     3.3701034565    6.6823333042    2.7182389664
     H     3.7934910145    5.0887791344    0.8253471334
     H     5.3264077907    3.4717352080   -0.2839054108
     H     7.5667722203    3.0587385275    0.7186666804
     O     9.8147437547    2.5305795181    2.1281598437
     H     9.9022679425    1.7163348745    2.6437098216
     H    10.6699835587    2.6537004215    1.6927928037
     O     8.1798576374    2.4207864828    4.1685561950
     H     7.3583058755    2.1688150799    3.7234354418
     H     7.9344350015    2.4978676095    5.1010863878
