51
-1.4409809839735417e+03 frame 29   xyz file generated by TeraChem
    Co     8.2331086549    4.7936905687    3.5688653317
     N     9.3246167236    3.1787353259    3.7073851179
     N     9.2817571738    5.0545480935    1.9387745346
     C     9.2410363391    6.0666568394    1.0694905738
     H     8.5233844378    6.8536841760    1.2506963272
     C    10.0943543182    6.1019627603   -0.0415853313
     H    10.0151542867    6.9377567053   -0.7239563139
     C    11.0140874838    5.0923935933   -0.2544192826
     H    11.6775377560    5.1202118270   -1.1105426722
     C    11.0881779351    4.0214352290    0.6607507242
     C    11.9877295350    2.9093061026    0.5631827346
     H    12.6738013663    2.8753846012   -0.2741254659
     C    11.9904909310    1.9105033030    1.4965772878
     H    12.6726932852    1.0739347103    1.4069584968
     C    11.0888651379    1.9405199887    2.6029408611
     C    11.0000541880    0.9584768047    3.6184446814
     H    11.6511665776    0.0924372186    3.5951802459
     C    10.0701336179    1.1086622514    4.6228951417
     H     9.9640276260    0.3721017758    5.4086841199
     C     9.2390716687    2.2342879090    4.6419685256
     H     8.5047638907    2.3691557886    5.4218405879
     C    10.1914133440    4.0576437376    1.7381921840
     C    10.2163023614    3.0418973933    2.7067304942
     N     7.1284807123    6.4061495944    3.5598885641
     C     5.9238037906    6.5986015575    3.0301572019
     C     5.2758606505    7.8379686301    3.1430839007
     C     5.8860607972    8.8833050966    3.8083797050
     C     7.1584375025    8.6905538164    4.3878570710
     C     7.8946547028    9.6812660755    5.1112070496
     C     9.1159502308    9.3966148220    5.6526907109
     C     9.7084723297    8.0997128470    5.5145653998
     C    10.9531995553    7.7139225456    6.0533306362
     C    11.4060109406    6.4223327702    5.8641913291
     C    10.6381088628    5.5018318785    5.1398222999
     N     9.4561682113    5.8476937582    4.6278994380
     C     8.9933363341    7.1173448560    4.8049625864
     C     7.7403872312    7.4189807459    4.2270149092
     H    10.9833483238    4.4921020349    4.9785474728
     H    12.3559086901    6.0983819073    6.2689008804
     H    11.5466877850    8.4274841654    6.6130027241
     H     9.6571989356   10.1552883179    6.2050780322
     H     7.4597298283   10.6655879001    5.2347228446
     H     5.3906740980    9.8431854068    3.8953008738
     H     4.2964530734    7.9545307594    2.6984470472
     H     5.4657741016    5.7663924158    2.5132140363
     O     6.8820145174    3.7050970194    2.6013152192
     H     6.8357068041    2.7787464130    2.9006057603
     H     7.0219953615    3.6560333875    1.6381032337
     O     7.3062123528    4.1008702272    5.1786312068
     H     6.3532620410    4.3093224140    5.2018540079
     H     7.6574884970    4.4559617342    6.0170509544
