45
-1.2999500745302817e+03 frame 112   xyz file generated by TeraChem
    Fe    -0.1371716241   -0.1904849923   -1.1522397867
     N    -1.7008053832    1.0566813522   -0.7782027872
     N    -1.2347967260   -1.3742718092   -0.0434978490
     C    -2.7161714077    0.4775105620   -0.0857757945
     C    -3.9195775874    1.1509292748    0.1257484623
     C    -4.0614999632    2.4556101231   -0.3437110668
     C    -2.9897075693    3.0634335918   -0.9936822584
     C    -1.8285951669    2.3234372524   -1.1959537969
     C    -2.4324579111   -0.8940245807    0.3729365875
     C    -3.2907299371   -1.6789708382    1.1434376126
     C    -2.9173076014   -2.9867313443    1.4436213920
     C    -1.6857234158   -3.4716130275    1.0009972947
     C    -0.8587409288   -2.6204347617    0.2803229074
     H    -4.7286340343    0.6720340697    0.6645756707
     H    -4.9883401043    2.9943476458   -0.1761110197
     H    -3.0479425848    4.0852517813   -1.3508088163
     H    -0.9779428406    2.7440247126   -1.7185628228
     H    -4.2318439125   -1.2794931651    1.5019200754
     H    -3.5709751048   -3.6114403536    2.0437279897
     H    -1.3540357804   -4.4748296735    1.2431111610
     H     0.1222539090   -2.9252995140   -0.0648108702
     N    -0.6063787664   -1.1250044816   -2.8727466775
     N     0.8867819619    0.9610989775   -2.3551914791
     C    -0.0058376808   -0.5782067858   -3.9562457054
     C    -0.2216656095   -1.1022312281   -5.2326356783
     C    -1.0722694653   -2.1968218527   -5.3932532274
     C    -1.6882096206   -2.7438138747   -4.2637971708
     C    -1.4272315236   -2.1760193867   -3.0223806297
     C     0.8424031799    0.5974774821   -3.6644468334
     C     1.5463297663    1.3132756956   -4.6326860033
     C     2.2981747351    2.4203480408   -4.2391150235
     C     2.3212959066    2.7995981460   -2.9035194171
     C     1.6010690419    2.0388217889   -1.9922489453
     H     0.2609201340   -0.6633498193   -6.0965119272
     H    -1.2506158118   -2.6162330343   -6.3771448210
     H    -2.3574669783   -3.5944160298   -4.3311860197
     H    -1.8799642049   -2.5674429004   -2.1202615413
     H     1.5098832079    1.0147316878   -5.6730058361
     H     2.8481073921    2.9845456276   -4.9852382171
     H     2.8801669217    3.6645604702   -2.5663833004
     H     1.5819052034    2.3051718396   -0.9446301734
     N     0.4618449069    2.4879263691    1.8090393683
     C     0.7086614533    1.4543323751    1.3242352423
     N     1.4938540521   -0.5726338982    0.0308418227
     C     0.8484432584    0.3847672449    0.4338810293
