43
-8.8673974487351893e+02 frame 10   xyz file generated by TeraChem
    Cr     7.2401795390    9.0727490459   14.5858124716
     C     5.4087525773   11.4074157110   13.0309593902
     H     6.1735621810   11.5873442768   12.2612682646
     H     4.5804429709   12.0835793151   12.7897207726
     C     4.8702147543    9.9750661384   12.9120055922
     H     4.2162273518    9.7520323103   13.7593031803
     H     4.2755554219    9.8953284616   11.9910738881
     N     5.9406896296    8.9583188812   12.9068273848
     H     6.5454657908    9.1261392481   12.1027197782
     C     5.4777207388    7.5531494795   12.8741302744
     H     4.6939166448    7.4535258323   13.6306300875
     H     5.0480664099    7.2908291367   11.8983421447
     C     6.6421157976    6.6153588257   13.2062280441
     H     6.3106161352    5.5701545574   13.1485927224
     H     7.4423631868    6.7575834839   12.4727846229
     N     7.2199424512    6.9411897704   14.5203811505
     H     6.5766090726    6.6492544083   15.2561168622
     C     5.9570988585   11.8305619965   14.3968666724
     H     5.2750710303   11.5294457913   15.1971873478
     H     6.0491255255   12.9263004652   14.4231752985
     C     9.0662032166    6.7412170247   16.1654934778
     H     8.2942461837    6.5677527863   16.9301932517
     H     9.8893762592    6.0626606398   16.4181585190
     C     9.6105212310    8.1710993394   16.2860117876
     H    10.2742584318    8.3907941476   15.4460229018
     H    10.1956967579    8.2513774045   17.2137359651
     N     8.5410465815    9.1872160058   16.2779002086
     H     7.9301714278    9.0188101694   17.0779841504
     C     9.0035122952   10.5915897405   16.3188788604
     H     9.7941005761   10.6944029577   15.5705276787
     H     9.4243184456   10.8518161606   17.2998576247
     C     7.8388622746   11.5262290276   15.9810292125
     H     8.1670432316   12.5720074247   16.0463260467
     H     7.0361663217   11.3780421165   16.7113554220
     N     7.2638856332   11.2044936550   14.6612205603
     H     7.9071994330   11.5003345858   13.9276193568
     C     8.5256397397    6.3142301093   14.7942304138
     H     9.2142276981    6.6084639933   13.9977486873
     H     8.4308379980    5.2186242418   14.7764669284
     N     9.0087222761    9.2723033498   11.8582037385
     C     8.6700235081    9.1490934898   12.9910162182
     N     5.4513101803    8.8672403400   17.3059719468
     C     5.7934262315    8.9933029545   16.1747770928
