29
-6.5315105706730890e+02 frame 71   xyz file generated by TeraChem
    Cr     5.6838629815    3.3466844215    6.7894731892
     N     5.3589528207    4.2867251517    4.8873077282
     H     5.9027703872    3.7979181611    4.1773272699
     H     4.3955309803    4.2951458541    4.5539019908
     N     5.8794098029    5.3497101490    7.3818430362
     H     5.4204737149    5.5620058266    8.2653028681
     H     6.8778850744    5.4606531451    7.5559483702
     C     5.8632039256    5.6861271234    4.9849385078
     H     5.5032889890    6.3036575428    4.1591423337
     H     6.9510170622    5.6403369952    4.9223070273
     C     5.4300207484    6.2623806690    6.3080171256
     H     5.8236593258    7.2727117813    6.4404780485
     H     4.3406147215    6.3259868190    6.3595772156
     N     5.4618853885    1.3472733250    6.2064447670
     H     5.9727199397    1.1065639421    5.3582152131
     H     5.9057965434    0.8138614478    6.9535002251
     N     3.5727446374    3.1434666456    7.1960452740
     H     3.3652193623    3.5417880449    8.1095033278
     H     2.9464893244    3.6030382387    6.5356930745
     C     4.0225717661    1.0039790207    6.1000390988
     H     3.8641542286   -0.0765606022    6.1235283891
     H     3.6655805598    1.3683222643    5.1334452840
     C     3.2766208239    1.6813541380    7.2311060312
     H     2.2049256777    1.4867894647    7.1575061490
     H     3.6234114325    1.3047312797    8.1929257545
     N     8.7757041441    3.0949301438    6.1666204809
     C     7.6214592136    3.2533822338    6.2635665579
     N     5.5935811713    2.8490628774    9.8842561803
     C     5.9373064523    2.8842308959    8.7598352817
