29
-6.5324393823549133e+02 frame 44   xyz file generated by TeraChem
    Cr     5.7290745164    3.2032009348    6.7255768562
     N     5.2643559679    4.2576409692    4.8973019360
     H     5.5947162637    3.6578929828    4.1448698523
     H     4.2924704715    4.4873145414    4.6878856510
     N     6.4688474915    5.1090597111    7.2487306985
     H     6.2515982045    5.4101332330    8.1947259754
     H     7.4721840211    4.9370178898    7.2202857611
     C     6.0859761237    5.4928617644    4.8870334038
     H     5.7459830206    6.2184226737    4.1403475557
     H     7.1036525297    5.1940963220    4.6321063788
     C     6.0547233148    6.1139854707    6.2591080820
     H     6.6758189616    7.0158407597    6.2861716278
     H     5.0318054344    6.4146726692    6.5030209535
     N     4.9312269290    1.3224235338    6.2083392878
     H     5.2592506461    0.9498008427    5.3205589584
     H     5.3285120907    0.7289912875    6.9335799138
     N     3.6801417806    3.5416152244    7.3871157465
     H     3.7444229539    3.9362340702    8.3221248908
     H     3.0830716549    4.1654858813    6.8440650920
     C     3.4579699277    1.3605193682    6.2889063212
     H     3.0164157209    0.3611148740    6.3634901981
     H     3.0858839476    1.8143866572    5.3654683044
     C     3.0515951532    2.2025695655    7.4865244069
     H     1.9600351533    2.2592124135    7.5525497476
     H     3.4265552860    1.7434507721    8.4006135011
     N     8.4337542958    2.1540036564    5.5144057676
     C     7.4593516306    2.7195827950    5.8659988037
     N     5.5899260019    2.5666836222    9.8000376886
     C     5.9615417063    2.6580425143    8.6768524393
