29
-9.9051096664235320e+02 frame 46   xyz file generated by TeraChem
    Fe     0.1948474737   -0.0630757091    0.3593613166
     N    -1.5329679814    0.7051698948   -0.2527213674
     N    -1.0042750733   -0.7128438588    1.8045568816
     C    -2.6065136483    0.4436766096    0.5284637056
     C    -3.8689549455    0.9297080709    0.2007708839
     C    -4.0284458384    1.6905842012   -0.9397163465
     C    -2.9180582426    1.9523072762   -1.7321006682
     C    -1.6904547298    1.4445516916   -1.3574341149
     C    -2.3071709965   -0.3630460555    1.6961218268
     C    -3.2408985213   -0.7658225710    2.6467922401
     C    -2.8313433574   -1.5346205342    3.7173235109
     C    -1.4913228786   -1.8862819081    3.8165842091
     C    -0.6102090613   -1.4583919632    2.8441366462
     H    -4.7172116564    0.7137837671    0.8332188368
     H    -5.0033875272    2.0748661220   -1.2079485846
     H    -2.9958513470    2.5434189041   -2.6331907768
     H    -0.7926276674    1.6144426920   -1.9322493009
     H    -4.2775674121   -0.4801958312    2.5473150153
     H    -3.5454226952   -1.8555322766    4.4639289866
     H    -1.1262177458   -2.4869332890    4.6372492666
     H     0.4415352239   -1.7014433701    2.8679533673
     N     0.4631591885    2.6935557622    1.5928895854
     C     0.5380696517    1.5496717495    1.3718275444
     N     2.4571596018   -1.3115578285    1.8680454692
     C     1.7347033269   -0.8464259483    1.0753440181
     N     1.8625881418    0.9491909837   -1.9685714968
     C     1.2220377314    0.6027313695   -1.0540003432
     N    -0.3233188913   -2.8158391331   -0.8338048039
     C    -0.1629511228   -1.6738419176   -0.6503315074
