23
-9.9374768153472837e+02 frame 44   xyz file generated by TeraChem
    Cr    11.5212387067    1.7300492934    4.0194345374
     O    11.8163227777    3.8301637334    1.8607242565
     C    11.6793335937    3.0869515693    2.7382883786
     O    11.2717461379   -0.4875744852    6.0743640697
     C    11.3653189424    0.3635601746    5.2946527986
     O     8.8981880158    0.9306746907    2.7418449891
     C     9.8493352844    1.2801074468    3.3017613517
     O    14.2457567125    2.4197169632    5.1713064996
     C    13.2108613122    2.1635015994    4.7194414975
     O    13.0463200860   -0.3913925360    2.6060141188
     C    12.3881452238    0.4775151280    3.0200829390
     N    10.5424815063    3.1789268475    5.2721436151
     C     9.3356985387    2.9368094025    5.8783157630
     C    10.9907141430    4.4718807940    5.3531488975
     H    11.9535345816    4.6632673717    4.9008487984
     C    10.3093399832    5.4853335099    5.9560243761
     H    10.7447248281    6.4751636678    5.9838711145
     C     9.0359988226    5.2451290896    6.5569510906
     C     8.5858388665    3.8891204409    6.5032576114
     H     7.6496158284    3.6078831893    6.9665688914
     H     8.9886793039    1.9136579758    5.8428112061
     N     7.6553271959    7.1202176898    7.6299010068
     C     8.3000895087    6.2543804439    7.1618991927
