13
-6.9858337762752330e+02 frame 169   xyz file generated by TeraChem
    Mn    -0.0160987397    0.1560945905    0.1579863732
     N     3.1275729149    0.2662256170   -0.0856129405
     C     1.9629814329    0.2249834099    0.0544519263
     N    -3.0811009117   -0.4660386850   -0.2349373302
     C    -1.9430874989   -0.2469552895   -0.0494635536
     O    -0.4033433603    2.9266822290    0.3688175342
     N    -0.2341228140    1.7605214211    0.2997963841
     N     0.0408545798    0.2364901589   -3.3297650104
     C     0.0259192179    0.2285403761   -2.1472179204
     N    -0.0559190182   -0.2712127809    3.2983951963
     C    -0.0370005808   -0.1489644662    2.1253960569
     N     0.3730710599   -2.9919848817   -0.3228257184
     C     0.2350748183   -1.8443737991   -0.1275410976
