19
-3.4900531606875120e+02 frame 7   xyz file generated by TeraChem
     C     0.5228179129   -1.0993979006   -0.0003445486
     C     1.8971016793   -1.3233675999   -0.0004361875
     C     2.7928517925   -0.2483289711   -0.0001192736
     C     2.2955371387    1.0559439069    0.0002931377
     C     0.9184742297    1.2800590139    0.0003849651
     C     0.0051043321    0.2103679322    0.0000676534
     C    -1.4350649877    0.5090710716    0.0001704652
     C    -2.4463039297   -0.3729601463   -0.0000903757
     C    -3.8974664535    0.0023368787    0.0000066553
     H    -4.0334249032    1.0890843540    0.0003665989
     H    -4.4114130812   -0.4096117066    0.8793253491
     H    -4.4113703623   -0.4090152851   -0.8796173424
     H    -2.2332868072   -1.4417077689   -0.0004017851
     H    -1.6802299348    1.5718590083    0.0004897776
     H     0.5375719707    2.2985535775    0.0007081625
     H     2.9787338229    1.9009882937    0.0005440596
     H     3.8641799315   -0.4282218965   -0.0001907131
     H     2.2733200214   -2.3428783953   -0.0007584710
     H    -0.1528774723   -1.9493331663   -0.0005982275
