53
-1.6531627853530804e+03 frame 9   xyz file generated by TeraChem
    Mn     3.7759088303   11.1968836411    4.4975033412
     N     4.7413540956   12.8126348224    3.8336655802
     N     2.9365624044   12.6359531878    5.8233690994
     N     2.6950153026   11.5294428634    2.8589929713
     C     3.4127452547   12.1282303273    1.8764389374
     C     5.5296939827    8.8955450352    4.5621278927
     C     1.4268112402   11.1477362668    2.6280677605
     H     0.9145804562   10.6789576818    3.4595417759
     C     3.2461893868   13.8962399135    5.4508421143
     N     5.4650005079   10.9609282550    5.7732864774
     C     6.5635410016   11.6337052034    5.0149634820
     H     6.8658260603   10.9835718200    4.1940907850
     H     7.4423664949   11.7713063213    5.6526734932
     C     2.2402471366   12.4460918525    6.9615116101
     H     1.9989721365   11.4280749810    7.2217879807
     C     2.8995221359   15.0006830892    6.2171522905
     H     3.1782475609   15.9960508783    5.8925762982
     N     4.6893448258    9.5658076183    3.7251161077
     C     6.0613082591   12.9626039781    4.5159769241
     H     5.9068164414   13.6384546515    5.3569257653
     H     6.7840952953   13.4376340576    3.8483655104
     C     6.0973138331    7.6765302766    4.2247206997
     H     6.7626923590    7.1930859960    4.9306749120
     C     4.7991478903   12.5326304138    2.3173889107
     H     5.5172056866   11.7261848605    2.1525108912
     H     5.1414789345   13.4107969533    1.7654580600
     C     3.9236120396   14.0330923000    4.1164874024
     H     3.1760906972   14.1507666646    3.3302062232
     H     4.5613046499   14.9188356448    4.0859050953
     C     1.5554859761   11.9313462716    0.3804441946
     H     1.1149155023   12.0922986655   -0.5961749909
     C     5.7349869279    9.5182959319    5.8755850447
     H     5.0083454641    9.0941665980    6.5736710951
     H     6.7345317789    9.3319209723    6.2819764786
     C     5.7842365954    7.0939551755    3.0068725685
     H     6.2088098553    6.1350809460    2.7319605172
     C     5.3533039041   11.4926368458    7.1579059036
     H     5.1946033154   12.5679596024    7.1460840592
     H     6.2687959742   11.2724784504    7.7159471584
     H     4.5071914434   11.0175502371    7.6522657418
     C     1.8427727582   13.5084754226    7.7611076897
     H     1.2783941090   13.3038046734    8.6637099331
     C     2.1838143083   14.8067316133    7.3942685436
     H     1.8965625747   15.6515316413    8.0102889411
     C     4.3886599547    8.9863154632    2.5383378865
     H     3.6990826049    9.5109130323    1.8954308644
     C     2.8655613240   12.3470116734    0.6273944351
     H     3.4510324008   12.8396239127   -0.1390654311
     C     0.8211028699   11.3293069733    1.3972038572
     H    -0.2020745647   11.0053284822    1.2504064974
     C     4.9114661338    7.7637271138    2.1494482990
     H     4.6299502842    7.3456545015    1.1912463983
    Cl     2.5780404051    9.6950768447    5.8114722229
