53
-1.6728405945302457e+03 frame 14   xyz file generated by TeraChem
    Fe     3.5871351599   12.1907546982    4.4533483924
     N     4.1649810506    9.9657692794    4.1114332649
     N     1.7589330200   11.1147173677    4.5266434779
     N     4.3669566563   11.4411271205    6.2773266079
     C     5.2237680426   10.4010224640    6.2275824032
     C     5.8121156524   13.6433794980    2.8984191502
     C     4.1659661291   12.0506432858    7.4604911540
     H     3.4743875717   12.8847169677    7.4414840976
     C     1.7587324589    9.7738859325    4.4667159393
     N     3.9025516075   12.2185142965    2.2351480575
     C     4.7499290916   11.0391792467    1.9270413026
     H     5.7691872364   11.2695673408    2.2375963580
     H     4.7779174575   10.8628439733    0.8440634100
     C     0.5821128912   11.7640543966    4.4843786721
     H     0.6430392211   12.8433173064    4.5520593541
     C     0.5897957140    9.0386477861    4.3117120076
     H     0.6322201489    7.9574416210    4.2525227524
     N     5.7405689367   13.0188408720    4.0865046913
     C     4.2865242881    9.7748758445    2.6462612567
     H     3.3011185767    9.4870044576    2.2779115120
     H     4.9647586127    8.9462147974    2.4080728051
     C     6.8937487012   14.4642363069    2.5770039903
     H     6.9339800873   14.9470358088    1.6071487892
     C     5.4059287891    9.8038623571    4.8636343346
     H     6.2030631753   10.3343146300    4.3353222655
     H     5.7150573362    8.7532680167    4.9402953756
     C     3.1001608543    9.1394430670    4.6812920267
     H     3.2636155462    9.0796735638    5.7602525605
     H     3.1271065995    8.1110724346    4.3029514917
     C     5.6868387486   10.5765653229    8.5763420578
     H     6.1984434189   10.2362372027    9.4690117983
     C     4.6442329569   13.4620388051    1.9521354138
     H     3.9463176833   14.2933126425    2.0889101057
     H     4.9980064623   13.5017361094    0.9137913147
     C     7.9033403791   14.6581581988    3.5157765406
     H     8.7466091843   15.2990910872    3.2837790190
     C     2.6253075179   12.2145964070    1.5050062216
     H     2.0674792330   11.3065722468    1.7245457996
     H     2.7839498858   12.2819696950    0.4212905819
     H     2.0267396065   13.0648279376    1.8324213699
     C    -0.6320073750   11.1057546063    4.3563187511
     H    -1.5555235942   11.6712052445    4.3268458404
     C    -0.6271168334    9.7163254289    4.2527706420
     H    -1.5541608300    9.1672071168    4.1365275418
     C     6.7147681190   13.2114316995    4.9905256361
     H     6.5980054888   12.7009166117    5.9382381416
     C     5.8945464692    9.9392323844    7.3543245477
     H     6.5653182711    9.0918253829    7.2740987016
     C     4.8031371923   11.6531656895    8.6285594698
     H     4.6042514995   12.1756901290    9.5563339113
     C     7.8134614020   14.0214575057    4.7505842225
     H     8.5742269803   14.1491684726    5.5111728290
    Cl     2.8410340204   14.2117404356    5.2121882414
