53
-1.6726809470221256e+03 frame 23   xyz file generated by TeraChem
    Fe     3.4566958109   11.1123004845    4.1334460642
     N     5.0146355483   12.0752937394    5.4651603532
     N     2.8872143700   10.4738265120    6.0877518853
     N     2.9357661052   13.1559408770    4.1780475371
     C     3.9621472956   14.0047586204    4.4247284877
     C     4.9331245224   10.5243340297    1.5982834921
     C     1.7202093492   13.6299103559    3.8500904673
     H     0.9523938758   12.8890064226    3.6610288864
     C     3.5219494877   11.0754274446    7.1181741561
     N     5.0899215069    9.6666929635    3.8847539952
     C     6.3458331623   10.3954808674    4.2518838143
     H     6.5963594874   11.0640099144    3.4249969751
     H     7.1694104430    9.6781882185    4.3472472371
     C     2.0041057069    9.4827068057    6.2945737956
     H     1.5319198652    9.0571217556    5.4210787189
     C     3.2861797706   10.6524329862    8.4197846907
     H     3.8096672387   11.1350831771    9.2367580260
     N     4.3118816128   11.5787090762    2.1699188788
     C     6.1940914760   11.1799406976    5.5283682291
     H     6.0446921324   10.5016233037    6.3696248106
     H     7.1068852685   11.7491642890    5.7363541070
     C     5.3648989982   10.5403822046    0.2757202131
     H     5.8703692426    9.6750830181   -0.1404100705
     C     5.2798216407   13.3615829079    4.7863122555
     H     5.8424436989   13.1504548857    3.8709319972
     H     5.8937434584   14.0304336167    5.3987168932
     C     4.4152626299   12.2535968101    6.8015852477
     H     3.8044447474   13.1619218927    6.7993821797
     H     5.1925806577   12.3948779283    7.5586681572
     C     2.5340875556   15.8781102548    3.9582259878
     H     2.3808705781   16.9483535196    3.8643820281
     C     5.0842767073    9.3023995631    2.4504213680
     H     4.2291078001    8.6419375677    2.2711339764
     H     5.9899452526    8.7416452797    2.1897858272
     C     5.1273484359   11.6725904088   -0.4944417542
     H     5.4483690101   11.7078978972   -1.5318259854
     C     4.9095891797    8.4420504650    4.6948914946
     H     4.9171670550    8.6847968926    5.7546649018
     H     5.7193418240    7.7357283769    4.4762234779
     H     3.9512938518    7.9847983469    4.4403647681
     C     1.7187887722    9.0262230979    7.5719302941
     H     1.0026894958    8.2247492838    7.7108647462
     C     2.3796537965    9.6181521606    8.6443860056
     H     2.1888833770    9.2779102263    9.6562772628
     C     4.0803495835   12.6739819073    1.4088928138
     H     3.5635030061   13.4969090861    1.8797646265
     C     3.7854206832   15.3793591951    4.3253046728
     H     4.6170364609   16.0454233654    4.5265379772
     C     1.4808256342   14.9923395191    3.7272934478
     H     0.4935317493   15.3443890262    3.4506262928
     C     4.4708666070   12.7584513139    0.0820829468
     H     4.2624014267   13.6581496945   -0.4865285423
    Cl     1.6885695479   10.1430188464    3.2418960848
