55
-1.7295359463880554e+03 frame 11   xyz file generated by TeraChem
    Fe    -0.0065087098    0.0058055620    0.0117800165
     O    -1.9360012827    0.2830908717   -0.5614292865
     C    -2.4009681455    1.4953831428   -0.3339732778
     C    -3.6859064862    1.9147116781   -0.6405726488
     C    -4.1222620911    3.2415427794   -0.3616864781
     C    -5.4337642111    3.6915616691   -0.6608678526
     C    -5.8390765421    4.9858794423   -0.3857582006
     C    -4.9377768612    5.8914368940    0.2175418267
     C    -3.6505946416    5.4831967977    0.5203512940
     C    -3.2031331722    4.1645957520    0.2503455159
     C    -1.8830402807    3.7284064080    0.5595666218
     C    -1.4620098604    2.4364596228    0.2845144334
     O    -0.2580737283    1.9671446488    0.5385459653
     H    -1.1866277964    4.4262269278    1.0220765187
     H    -2.9538345631    6.1791143116    0.9843377836
     H    -5.2510683258    6.9106930093    0.4296983300
     H    -6.8528587910    5.3016327376   -0.6194538525
     H    -6.1263894355    2.9910349757   -1.1242477963
     H    -4.3775246289    1.2126729986   -1.1036428429
     O    -0.3512112869   -0.7350724487    1.8749055787
     C    -0.5150145714   -2.0431059228    1.9130569848
     C    -0.7424561231   -2.7738239096    3.0689027858
     C    -0.9338535771   -4.1841777209    3.0357817537
     C    -1.1658756621   -4.9497417018    4.2070013218
     C    -1.3519103059   -6.3200248361    4.1553691171
     C    -1.3022583519   -6.9889885659    2.9116911113
     C    -1.0786081832   -6.2697662433    1.7506807172
     C    -0.8845208238   -4.8645794397    1.7686642870
     C    -0.6495592086   -4.1081455678    0.5853880307
     C    -0.4602517466   -2.7345306511    0.6253833693
     O    -0.2160545101   -1.9820181670   -0.4292217033
     H    -0.6089974609   -4.6197321736   -0.3751432926
     H    -1.0407984994   -6.7830434617    0.7914024916
     H    -1.4534308894   -8.0647422712    2.8668394380
     H    -1.5219917168   -6.8830382933    5.0697969778
     H    -1.2025439885   -4.4310927974    5.1634927201
     H    -0.7807668160   -2.2532939013    4.0246449500
     O     0.7641446528    0.3448466603   -1.8318338142
     C     2.0741979916    0.4801433442   -1.8702200493
     C     2.8119873585    0.6978864916   -3.0234357432
     C     4.2268264947    0.8526574330   -2.9854497361
     C     5.0007980153    1.0804222143   -4.1520229250
     C     6.3758956862    1.2251355054   -4.0959231864
     C     7.0390368350    1.1570249780   -2.8499836237
     C     6.3120894580    0.9352917136   -1.6934912513
     C     4.9018878877    0.7815551645   -1.7161214162
     C     4.1370325158    0.5559940876   -0.5364419835
     C     2.7588177760    0.4021487041   -0.5813671696
     O     1.9935741990    0.1772973401    0.4665874577
     H     4.6448430572    0.4985760034    0.4252336058
     H     6.8211722031    0.8814654027   -0.7327297233
     H     8.1199567144    1.2645034827   -2.8030718298
     H     6.9437483193    1.4053266118   -5.0054095993
     H     4.4863431738    1.1339424719   -5.1099948155
     H     2.2949207512    0.7547488053   -3.9800794871
