58
-2.3354674717473717e+03 frame 100   xyz file generated by TeraChem
    Ti     7.7253280191   -4.4690959847   -2.7483494415
     O     6.0920717344   -4.9275705437   -3.7047610031
     O     6.9130868755   -5.8958585599   -1.4614044467
     O     5.6405452625   -7.7262421013   -1.5215714228
     O     5.1400489177   -6.0044229108   -6.4036749181
     O     3.1682904087   -6.7995942804   -5.6394951515
     O     4.0869556362   -3.1151714708   -2.3770799794
     O     3.8095722588   -4.4818054680   -0.5982879190
     C     5.2942368824   -5.9377775966   -3.2273774562
     C     5.9655192081   -6.6005586387   -1.9590554757
     C     5.1644167418   -7.0704499533   -4.3072182150
     H     6.1870971824   -7.3178565074   -4.5954609618
     H     4.7033607029   -7.9408610864   -3.8435021427
     C     4.3709654022   -6.6480478515   -5.4831797056
     C     3.8731368812   -5.4300044477   -2.8283937231
     H     3.3004662470   -6.2645520586   -2.4219309897
     H     3.3802117568   -5.0626978313   -3.7306521175
     C     3.9251558181   -4.3254956979   -1.8057222439
     H     4.5148916738   -5.6785384362   -7.0785874015
     H     4.4459927191   -2.4802351024   -1.7176518654
     O     8.9577730536   -5.6173089289   -3.7061876084
     C    10.2329966975   -5.8209666255   -3.2180692641
     C    10.4390297219   -4.9562468430   -1.9268548888
     O     9.3564653357   -4.4945503611   -1.4601987769
     O     8.0787949077   -2.8517266437   -3.7564881854
     C     7.6339619687   -1.6313186389   -3.3710157155
     C     6.7869563669   -1.8234372216   -2.0432574326
     O     6.9196057626   -2.9745865752   -1.4922161853
     O     5.9956089874   -0.9431744742   -1.6489148638
     C     6.6236941732   -0.9620895942   -4.3778639461
     H     5.8459750750   -1.7080870122   -4.5445651517
     H     6.1889310642   -0.0920073142   -3.8877364005
     C     7.2502207230   -0.5436406129   -5.6588038604
     O     7.2928151388   -1.5374824028   -6.5847764385
     H     7.8177531565   -1.1664441105   -7.3186862223
     O     7.7322443073    0.5552553136   -5.8966923111
     C     8.8447163125   -0.6693288494   -3.2539574831
     H     8.5043793595    0.2980159168   -2.8810198160
     H     9.2646387574   -0.5429151935   -4.2514679994
     C     9.9073412921   -1.2158817481   -2.3955499823
     O    10.7558991210   -2.0567802258   -3.0202108193
     H    11.1989646007   -2.6250678189   -2.3507492376
     O    10.0388461524   -0.9309322501   -1.2161021981
     O    11.5775281502   -4.7022659876   -1.4835610468
     C    11.3808238159   -5.3080296566   -4.1403212238
     H    11.1303280248   -4.2700794818   -4.3639378395
     H    12.3024319092   -5.3385313212   -3.5608845301
     C    11.5614625140   -6.0852271537   -5.3747234039
     O    10.7507818232   -5.6537512030   -6.3819698708
     H    10.8849462884   -6.2964270816   -7.1027687167
     O    12.3112763091   -7.0375297635   -5.5378780364
     C    10.4380256721   -7.3467372121   -2.9814214048
     H    11.4240299516   -7.5128268038   -2.5450579243
     H    10.3861676058   -7.8396205700   -3.9533696348
     C     9.3866288372   -7.9441903384   -2.1048901047
     O     8.2825391189   -8.3047792491   -2.7950809907
     H     7.5162747531   -8.3731700180   -2.1821394519
     O     9.4992750017   -8.1215333575   -0.9061703239
