58
-2.4007859721992072e+03 frame 10   xyz file generated by TeraChem
    Fe     7.7296562968   -4.0142002815   -2.4707308634
     O     6.2311377182   -4.4523181238   -3.5540641347
     O     6.5169572565   -4.8530625854   -1.0232679592
     O     4.8506814457   -6.3455559756   -0.8928154447
     O     6.3388777093   -6.6967639146   -5.6668672102
     O     4.2552936913   -5.8874025553   -5.9437434384
     O     4.3640793573   -2.1546915198   -3.6386760438
     O     3.7819306548   -2.5666403942   -1.4949682463
     C     5.1923088191   -5.1707106696   -2.9956309173
     C     5.5070009875   -5.4876288181   -1.5058966491
     C     4.9955620500   -6.5459386436   -3.7277617978
     H     5.7697313625   -7.2359984630   -3.3939512315
     H     4.0143392273   -6.9537657999   -3.4780901344
     C     5.1197823431   -6.3394225154   -5.2119474467
     C     3.8398138343   -4.3897136403   -3.0834576486
     H     3.1101824606   -4.9023376344   -2.4522560516
     H     3.5003364508   -4.4030796663   -4.1218961092
     C     3.9905272736   -2.9607298204   -2.6305202866
     H     6.4627801171   -6.3061864309   -6.5539594954
     H     4.8143524151   -1.3420620010   -3.2925225827
     O     8.6090963001   -5.7786814020   -3.2401681889
     C     9.8153895812   -6.2053273693   -2.6117079679
     C    10.0803868365   -5.3124185866   -1.3759198471
     O     9.2522723021   -4.3418393106   -1.1870011177
     O     8.8827995529   -2.8922033456   -3.6189276019
     C     8.2245536523   -1.7579839909   -4.1166201339
     C     7.1237767575   -1.3286605800   -3.1039025763
     O     7.0014017319   -2.0822893763   -2.0726622812
     O     6.4021619865   -0.3399912830   -3.3454591806
     C     7.5291299085   -2.1073547191   -5.4733354025
     H     6.6071029669   -2.6549984163   -5.2774358937
     H     7.3061216570   -1.1828391266   -6.0119024807
     C     8.4774389346   -2.9873620213   -6.2574295024
     O     8.1083977440   -4.2727545412   -6.2021565957
     H     8.8695797883   -4.9088935613   -6.2759452659
     O     9.4753889614   -2.5950306658   -6.8426901968
     C     9.2310349548   -0.6031196114   -4.3292572669
     H     8.6941624500    0.3273802841   -4.5236263692
     H     9.8316254908   -0.8312839402   -5.2184425869
     C    10.2115881281   -0.3617669112   -3.1863556138
     O    10.5235894047   -1.4212503812   -2.4384916776
     H     9.9524757430   -2.2031726239   -2.7830170776
     O    10.7299352113    0.7264950095   -2.9913366943
     O    11.0643253599   -5.5597320167   -0.6715790692
     C    10.9981355906   -6.0270103464   -3.5912267190
     H    11.1395795496   -4.9454773737   -3.7257931054
     H    11.9092785272   -6.4284587019   -3.1458852092
     C    10.7623793702   -6.6228822018   -4.9922536916
     O     9.6247990445   -6.3253773096   -5.5318331642
     H     8.7537299363   -5.8964742878   -4.2400174942
     O    11.6476381983   -7.3098420416   -5.5194799252
     C     9.6647839528   -7.6831442540   -2.1641554641
     H    10.6025018457   -7.9985191218   -1.7054388265
     H     9.4644743008   -8.2988551636   -3.0470769637
     C     8.5517521223   -7.8692192547   -1.1553820402
     O     7.3295252711   -7.8087230644   -1.7180546981
     H     6.6432033047   -7.6643655109   -1.0300033358
     O     8.7206342108   -8.0606015278    0.0350757175
