21
-5.1040685061436932e+02 frame 18   xyz file generated by TeraChem
    Fe    -0.0073454306    0.1249680052   -0.1742238503
     C     0.2681933095    1.3149921048    1.5165011723
     C    -1.0762383183    0.8344189881    1.5315090074
     C     1.1405142032    0.1797291257    1.5600824648
     C     0.3259937967   -0.9934326080    1.6084301025
     C    -1.0371356261   -0.5868859699    1.5912840446
     H     2.2215122370    0.2042288471    1.5442349467
     H     0.5707060083    2.3512533881    1.4523343715
     H    -1.9689345932    1.4400086003    1.4496576104
     H     0.6807802880   -2.0153997707    1.5998779216
     H    -1.8934607921   -1.2470531091    1.5478966490
     C     0.3440251033   -1.0636972584   -1.9057744319
     C    -1.0078750349   -0.6223343151   -1.9488532187
     C     1.1881067244    0.0890729447   -1.8712545068
     C     0.3455688794    1.2473649172   -1.8941250776
     C    -1.0096096516    0.8003130764   -1.9392214488
     H    -1.8874575583    1.4318977517   -1.9088549226
     H     0.6730763925    2.2773273734   -1.8543224565
     H     2.2683950112    0.0863169462   -1.8200526295
     H    -1.8828861952   -1.2577617622   -1.9139458833
     H     0.6721011468   -2.0931870754   -1.8522098648
