19
-3.6136067666788693e+02 frame 9   xyz file generated by TeraChem
     C    -1.2796361466   -0.9986566336   -0.0000005080
     C     0.0913568484   -1.1202835174    0.0000364800
     C     0.8756756063    0.0486921555    0.0000979559
    Br     2.7985306168   -0.1196250412    0.0001613382
     C     0.3116458605    1.3366160149    0.0001212474
     C    -1.0602651161    1.4513369996    0.0000842662
     C    -1.8969628479    0.2924098146    0.0000231983
     C    -3.3033050691    0.4886198872   -0.0000131792
     C    -4.2624717749   -0.5090578178   -0.0000754096
     C    -5.7133958001   -0.2418459477   -0.0001482082
     H    -6.1745842204   -0.7254317813    0.8740575629
     H    -6.1743989649   -0.7250848207   -0.8746502161
     H    -5.9468837184    0.8247842412    0.0000196556
     H    -3.9577981744   -1.5527450679   -0.0000893595
     H    -3.6513785467    1.5191078802    0.0000080533
     H    -1.5227991141    2.4329312433    0.0001028487
     H     0.9476010677    2.2133508363    0.0001685516
     H     0.5605780228   -2.0966653892    0.0000195613
     H    -1.8864977289   -1.8959779560   -0.0000476388
