19
-3.6156993788413683e+02 frame 9   xyz file generated by TeraChem
     C    -1.2558720298   -0.9841264239   -0.0000170116
     C     0.1315121332   -1.1036871437    0.0000276201
     C     0.9022121896    0.0561001439    0.0001074144
    Br     2.8744777191   -0.1035083106    0.0001763680
     C     0.3297434058    1.3215868532    0.0001437213
     C    -1.0617820879    1.4183666370    0.0000984366
     C    -1.8826451655    0.2768327225    0.0000179045
     C    -3.3408204143    0.4570988245   -0.0000287302
     C    -4.2764575574   -0.5045639403   -0.0000974629
     C    -5.7521250624   -0.2426568147   -0.0001557984
     H    -6.2317515889   -0.6931326330    0.8794348611
     H    -6.2316524590   -0.6929873946   -0.8798757128
     H    -5.9690612152    0.8305442421   -0.0000818271
     H    -3.9796323009   -1.5530228401   -0.0001198360
     H    -3.6708645686    1.4962206326   -0.0000052019
     H    -1.5215402197    2.4030873964    0.0001262883
     H     0.9459337163    2.2135497701    0.0002051536
     H     0.5978257349   -2.0824114390    0.0000002452
     H    -1.8524894292   -1.8908151824   -0.0000802323
