51
-9.0368079281702921e+02 frame 20   xyz file generated by TeraChem
    Fe    -0.0354016140    0.1380123223   -0.1457599767
     C    -0.1143965918    1.1166434059    1.7207812122
     C    -1.4373981722    0.9853525624    1.1910493918
     C     0.4437209266   -0.1951171085    1.8585451370
     C    -0.5374454592   -1.1440800595    1.4168607552
     C    -1.6998100793   -0.4124941372    0.9878314345
     C     1.8192716622   -0.5156730223    2.3539596596
     C     0.5604459862    2.4093647215    2.0573009206
     C    -2.3930642882    2.1075807569    0.9441702774
     C    -0.3841309958   -2.6328027805    1.4142098386
     C    -2.9937587886   -0.9992101012    0.5198784599
     C     0.1443926992   -0.8906054411   -1.9687908892
     C    -0.5152295233    0.3727460284   -2.1317135579
     C     1.4463613884   -0.6475690919   -1.4300192318
     C     1.5937244939    0.7679088842   -1.2289698192
     C     0.3832975562    1.4046646650   -1.6867324208
     C     0.1109819989    2.8763579405   -1.6988862523
     C     2.8250415750    1.4579657129   -0.7346947523
     C     2.4771877805   -1.6864997618   -1.1226460149
     C    -1.9118000110    0.5723487356   -2.6303475353
     C    -0.4336925018   -2.2407062629   -2.2586060862
     H    -1.8685021973    3.0378414816    0.7121698841
     H    -2.9988814535    2.2828770794    1.8425035201
     H    -3.0760094817    1.8819265013    0.1212274766
     H     1.6484246793    2.3140553457    2.0303102898
     H     0.2778465296    2.7321749415    3.0672162953
     H     0.2703949568    3.2024651608    1.3636822527
     H     2.5239173185    0.2898159113    2.1325491191
     H     2.1993222840   -1.4376465115    1.9085722935
     H     1.8083456338   -0.6531766530    3.4429166985
     H     0.6554612711   -2.9295009722    1.2519864192
     H    -0.9994797137   -3.0979672499    0.6412897532
     H    -0.6981444755   -3.0436598104    2.3826310604
     H    -2.8427695542   -1.9692404889    0.0397707813
     H    -3.5027999355   -0.3404604080   -0.1878237687
     H    -3.6635200107   -1.1483793320    1.3766012543
     H    -1.5243980762   -2.2342146414   -2.1894214794
     H    -0.0514751602   -2.9905393502   -1.5617193637
     H    -0.1636887691   -2.5609985009   -3.2725889396
     H     2.0195073237   -2.6361701604   -0.8332491637
     H     3.1418049160   -1.3645023180   -0.3177254756
     H     3.0942197383   -1.8706014419   -2.0112907886
     H     2.5871699515    2.4153451518   -0.2653164567
     H     3.5017966102    1.6577775323   -1.5753111585
     H     3.3658052161    0.8441571318   -0.0103103893
     H     0.4163760398    3.3093558812   -2.6601295835
     H     0.6623449200    3.3932949615   -0.9105186337
     H    -0.9540008818    3.0829266397   -1.5673350719
     H    -2.5351176270   -0.3012111671   -2.4247374115
     H    -1.9124937560    0.7315558725   -3.7161303044
     H    -2.3824242381    1.4435112447   -2.1679195596
