51
-9.0381796733837473e+02 frame 24   xyz file generated by TeraChem
    Fe    -0.0378510647    0.1357974428   -0.1091105100
     C     0.1263572660    1.3532572145    1.5320521466
     C    -1.1639546757    0.7254839908    1.4942280059
     C     1.1223024418    0.3219455515    1.5603625550
     C     0.4474236008   -0.9464265508    1.5388405350
     C    -0.9687535409   -0.6981011537    1.4950111558
     C     2.6031804503    0.5429638241    1.6249250296
     C     0.3865120231    2.8294646720    1.5762528470
     C    -2.4831783814    1.4364237945    1.5201303756
     C     1.1127102069   -2.2893488658    1.5671949117
     C    -2.0501019884   -1.7340631329    1.4764211699
     C     0.1934224926   -1.0880192989   -1.7441043910
     C    -1.0735480921   -0.4166608702   -1.7859344412
     C     1.2231297195   -0.0904768612   -1.7060160229
     C     0.5932935911    1.2006321036   -1.7313702524
     C    -0.8293515754    0.9990685385   -1.7773161754
     C    -1.8776512571    2.0680423350   -1.8161620950
     C     1.2997503495    2.5219087407   -1.7446673395
     C     2.6967088068   -0.3670613304   -1.6990969091
     C    -2.4112224542   -1.0866292551   -1.8816270013
     C     0.4018319083   -2.5719161761   -1.7887860030
     H    -2.4039299664    2.4431892208    1.0994555961
     H    -2.8561363784    1.5406730829    2.5485418330
     H    -3.2444355214    0.8971879222    0.9469655422
     H     1.3774709913    3.0708374513    1.1805109240
     H     0.3391417918    3.2169683352    2.6033418781
     H    -0.3475866767    3.3843806404    0.9824349228
     H     2.9096946982    1.3845190639    0.9951985537
     H     3.1537672196   -0.3403474418    1.2897426447
     H     2.9287657133    0.7663102370    2.6504442291
     H     2.0401012936   -2.2935896611    0.9858235526
     H     0.4609137655   -3.0673082075    1.1606149790
     H     1.3705068229   -2.5825923872    2.5952100547
     H    -1.7270857203   -2.6420500230    0.9579190876
     H    -2.9489469161   -1.3655534544    0.9746266866
     H    -2.3406467606   -2.0239184140    2.4966524613
     H    -0.3754258197   -3.1030933111   -1.2292016073
     H     1.3675783177   -2.8516568545   -1.3579151171
     H     0.3796291202   -2.9492959768   -2.8205899606
     H     2.9455928149   -1.1982151836   -1.0317061895
     H     3.2671073919    0.5061413826   -1.3705875992
     H     3.0528312237   -0.6358609357   -2.7033773640
     H     0.6598909720    3.3203095274   -1.3593950960
     H     1.5932600328    2.8018628650   -2.7668511601
     H     2.2105674208    2.5019890773   -1.1383954002
     H    -2.1202467054    2.3531809714   -2.8501777324
     H    -1.5493349850    2.9725286215   -1.2955107066
     H    -2.8045581304    1.7305207587   -1.3450937472
     H    -2.4052745356   -2.0605986362   -1.3837809851
     H    -2.6987312361   -1.2546227553   -2.9289816021
     H    -3.1981599651   -0.4831808282   -1.4178261694
