21
-5.3205669513286045e+02 frame 43   xyz file generated by TeraChem
    Co    -0.0274886602    0.1169435769   -0.1786017548
     C     0.2541561941    1.3229901414    1.4663898260
     C    -1.0887973741    0.8358267320    1.4311187975
     C     1.1327393840    0.1969845775    1.5121205007
     C     0.3316560133   -0.9868219390    1.5179383201
     C    -1.0407456408   -0.5923921224    1.4646202402
     H     2.2133479335    0.2328526502    1.4973665913
     H     0.5545171704    2.3598863066    1.4031049471
     H    -1.9805598172    1.4397221022    1.3359117550
     H     0.7000802260   -2.0033959019    1.5023005139
     H    -1.8895746912   -1.2591464114    1.3997340970
     C     0.2137007011   -1.1087411576   -1.8137344370
     C    -1.0841707339   -0.5100453794   -1.8208363874
     C     1.1846176662   -0.0607480175   -1.8249719343
     C     0.4863667878    1.1865750578   -1.8486285832
     C    -0.9164741558    0.9098562268   -1.8465302130
     H    -1.7084087299    1.6448089290   -1.8017918941
     H     0.9387105681    2.1682104728   -1.8122546257
     H     2.2568629292   -0.1876455864   -1.7688856367
     H    -2.0263324931   -1.0366957169   -1.7554236755
     H     0.4238267225   -2.1668847405   -1.7399764473
