23
-5.4919273430757528e+02 frame 46   xyz file generated by TeraChem
    Fe     0.1299030212    0.4726464882   -0.7714671844
     C    -0.2047249969    1.7089779566    1.3531780370
     C    -1.4761403553    1.1365406902    1.0041678331
     C     0.6881753943    0.5930897637    1.6828165632
     C    -0.0212395449   -0.6283558766    1.5423583432
     C    -1.3392585835   -0.3105638893    1.0255253956
     H     1.6531724765    0.6903058533    2.2013887173
     H     0.0185090940    2.7457574162    1.6039296339
     H    -2.4038520929    1.6833343985    0.9197646599
     H     0.3298687765   -1.6030693662    1.8904480717
     H    -2.1622491029   -1.0139651493    1.0085463603
     C    -0.7109710501    0.7955152444   -2.4595624961
     C     0.1978932625    1.8410286692   -2.1680618727
     C    -0.2680924783   -0.5422815689   -2.3179506317
     C     1.0737996562   -0.8557758447   -1.9342167729
     C     1.9514135747    0.1771493877   -1.5513952374
     C     1.4906497776    1.5285028374   -1.6410259112
     H    -1.7699273571    1.0195726100   -2.4971264368
     H    -0.1690021208    2.8493912347   -1.9757379418
     H    -1.0026980527   -1.3395988630   -2.2339144463
     H     1.3379926753   -1.8562773726   -1.5732425706
     H     2.8303244343   -0.0060873369   -0.9107289970
     H     2.0376735924    2.2904626174   -1.0641332162
