51
-9.2533547460292948e+02 frame 44   xyz file generated by TeraChem
    Co    -0.0281008475    0.1391790152   -0.1414222626
     C     0.4507126852    1.2588341932    1.5186966083
     C    -0.9632520654    1.0152837045    1.4778284206
     C     1.1234268198   -0.0102521323    1.5460931190
     C     0.1241493963   -1.0413486979    1.5223939413
     C    -1.1647190389   -0.4067295728    1.4779099815
     C     2.6021484567   -0.2155720267    1.6224683639
     C     1.1102482799    2.5996562553    1.5856838720
     C    -2.0305369644    2.0603134241    1.4988927051
     C     0.3849694565   -2.5121968020    1.5659550538
     C    -2.4897838469   -1.0974846717    1.4917711662
     C    -0.2719185413   -1.0790014765   -1.7775042433
     C    -1.1976061059    0.0181448942   -1.8083867079
     C     1.0588594681   -0.5387338785   -1.7410163162
     C     0.9579190792    0.8953886503   -1.7508545193
     C    -0.4385813660    1.2398213215   -1.7924667745
     C    -1.0059280080    2.6229476591   -1.8114976749
     C     2.1013579964    1.8577436437   -1.7285088837
     C     2.3218415043   -1.3383724020   -1.7203949836
     C    -2.6872487212   -0.0962001245   -1.8554265848
     C    -0.6310884811   -2.5305964686   -1.8075212264
     H    -1.6851329914    2.9953650779    1.0522834454
     H    -2.3180685410    2.2744607616    2.5363186304
     H    -2.9281945875    1.7351549686    0.9662458722
     H     2.1284967642    2.5631617964    1.1920839879
     H     1.1664982943    2.9348188027    2.6290442901
     H     0.5537379226    3.3552775247    1.0245267003
     H     3.1454082002    0.5737250403    1.0965878582
     H     2.8947112918   -1.1774424539    1.1960796827
     H     2.9290598992   -0.2023163253    2.6703393611
     H     1.2897686908   -2.7785849585    1.0140179352
     H    -0.4517882539   -3.0820366845    1.1570507096
     H     0.5277696361   -2.8308836463    2.6069522812
     H    -2.4367202000   -2.0871066104    1.0315566599
     H    -3.2535932740   -0.5145824194    0.9726771208
     H    -2.8231995590   -1.2295775344    2.5295538065
     H    -1.5674268857   -2.7240408038   -1.2768351659
     H     0.1496734814   -3.1463743300   -1.3548225726
     H    -0.7603498506   -2.8625128443   -2.8450239029
     H     2.2199556576   -2.2317795459   -1.0986518863
     H     3.1609431134   -0.7512388426   -1.3414622423
     H     2.5729308501   -1.6686610393   -2.7360992918
     H     1.8071046255    2.8144242757   -1.2921925191
     H     2.4486149592    2.0492648156   -2.7519773692
     H     2.9483260439    1.4646766655   -1.1603912415
     H    -1.0979272400    2.9742774987   -2.8473785852
     H    -0.3658028252    3.3290397304   -1.2771751502
     H    -2.0015811481    2.6503710205   -1.3641395638
     H    -3.0270483873   -1.0269986250   -1.3956929552
     H    -3.0341798633   -0.0931479048   -2.8964943212
     H    -3.1715249793    0.7374417820   -1.3403546289
