41
-7.8518769578025581e+02 frame 18   xyz file generated by TeraChem
    Fe    -0.2304429040    0.0122480096   -1.2787345773
     C    -1.5216852165   -1.4071846420   -0.1644123664
     C    -2.2319023289   -0.8191415569   -1.2521485413
     C    -0.3999445199   -2.0755203497   -0.7322566301
     C    -0.5042302161   -2.0315605825   -2.1639973489
     C    -1.6381231816   -1.2587373072   -2.4824659523
     H     0.3751671057   -2.5948868096   -0.1800352712
     H    -1.7317456319   -1.2746068338    0.8895579852
     H    -3.1139392790   -0.1954129011   -1.1713186454
     H     0.2045487486   -2.4613548826   -2.8613666721
     H    -1.9650943970   -0.9775607163   -3.4761654403
     C    -0.2271417810    1.8887349322   -2.2446245431
     C    -0.4994499323    2.0496128662   -0.8388089966
     C     0.9623526241    1.2418463550   -2.6864569162
     C     1.7486546064    0.5528891713   -1.7098341415
     C     1.5014380824    0.7409269436   -0.3063078696
     C     0.4093068018    1.5394790450    0.1334075914
     C    -1.2262934033    2.3776690833   -3.2742705145
     C    -1.7440031150    2.7743912475   -0.3706442708
     C     1.3023650820    1.1408102031   -4.1524005169
     C     2.8502406019   -0.3845620291   -2.1579543507
     C     2.3989912369    0.1015144234    0.7313703076
     C     0.1712082802    1.7206505220    1.6107835102
     H     2.6509779142   -0.7796673083   -3.1557848219
     H     2.9359648270   -1.2443742595   -1.4898391870
     H     3.8295674607    0.1147025081   -2.1811838268
     H     3.2982272384   -0.3317186066    0.2941691304
     H     1.8804771898   -0.6925232039    1.2818135927
     H     2.7188687514    0.8469141015    1.4690711454
     H     0.3237939826    0.7835173722    2.1546192993
     H    -0.8391028646    2.0667323721    1.8290644566
     H     0.8718483433    2.4554413499    2.0332296351
     H    -2.3598585591    3.1226975511   -1.1988606618
     H    -1.4770931167    3.6539467255    0.2288990510
     H    -2.3682652463    2.1288412251    0.2563253160
     H    -2.2526867233    2.1896666908   -2.9508772171
     H    -1.0961998599    1.8600071347   -4.2257343350
     H    -1.1283673655    3.4567475039   -3.4572567393
     H     0.9959091091    2.0411995372   -4.6920511649
     H     0.8095332212    0.2853780841   -4.6343219119
     H     2.3790583340    1.0261871310   -4.3020472900
