56
-9.8172402954515292e+02 frame 34   xyz file generated by TeraChem
    Fe     0.1194573015    0.4394564288   -0.3914598563
     C     1.1469429089   -1.3405047783   -0.3207058325
     C    -0.1924244775   -1.5364256296    0.1398548821
     C     1.0789476941   -0.8642485089   -1.6627616000
     C    -0.2925090947   -0.7535065770   -2.0154981937
     C    -1.0690782132   -1.1541445397   -0.8947927817
     C     2.2453555176   -0.6242244174   -2.5606366578
     C     2.3969606660   -1.6698333320    0.4375248700
     C    -0.6116453888   -2.1097955492    1.4584402774
     C    -0.8226759835   -0.3937174247   -3.3618145255
     C    -2.5603277387   -1.2910505860   -0.8826216763
     C    -1.0516930984    1.6612896214    0.9923532468
     C     0.2668188478    1.4734728863    1.5199301971
     C    -1.2309063908    2.0642964391   -0.3759774408
     C    -0.0967401039    2.3803966056   -1.1879912879
     C     1.2226898883    2.2384217086   -0.6362673728
     C     1.4074476180    1.8123493632    0.7252202359
     C    -2.2600002461    1.4119919028    1.8732107110
     C     0.4547703767    0.9057078775    2.9048996500
     C    -2.6323892675    2.1099100905   -0.9344774189
     C    -0.2561552545    2.8767889466   -2.5965803359
     C     2.4312475351    2.5667783891   -1.4748046207
     C     2.8139805216    1.7337302294    1.2679604696
     H    -1.3003503455    2.9464722795   -2.8938091339
     H     0.2574234624    2.2337830606   -3.3137083832
     H     0.1851506091    3.8766153546   -2.6773958129
     H     2.2450953046    2.4042910818   -2.5351448218
     H     3.2979631362    1.9701696716   -1.1929494786
     H     2.6936669491    3.6240168621   -1.3380223460
     H     3.2674168665    2.7309893855    1.2364801079
     H     3.4473848059    1.0708856290    0.6746603211
     H     2.8432331870    1.3885669488    2.3000994018
     H    -0.3992995981    0.3067898231    3.2170369693
     H     0.5883862938    1.7135610914    3.6357249186
     H     1.3325408497    0.2606792114    2.9548830903
     H    -2.0114156355    1.5687186157    2.9235145815
     H    -2.6493057857    0.3942774450    1.7699922380
     H    -3.0658419130    2.1033955206    1.6216829410
     H    -3.3004860247    1.4462188322   -0.3891344796
     H    -2.6572494147    1.8070351030   -1.9808054230
     H    -3.0370551228    3.1279514219   -0.8703256385
     H     0.1597676274   -1.9792977260    2.2214815253
     H    -0.7920408919   -3.1877528871    1.3537359546
     H    -1.5372991729   -1.6581675939    1.8245735403
     H     3.2627957173   -1.1394239989    0.0355176167
     H     2.6055815399   -2.7452617731    0.3656947980
     H     2.3076094298   -1.4232733102    1.4998116380
     H     3.1204022926   -0.2882510748   -1.9983657065
     H     2.0205351085    0.1295517075   -3.3185041129
     H     2.5162415410   -1.5532078610   -3.0779821594
     H    -0.1006120202    0.1917852093   -3.9334466168
     H    -1.7516564968    0.1781818801   -3.2949554981
     H    -1.0344359233   -1.3082553412   -3.9301453157
     H    -3.0360331335   -0.5932294619   -1.5730272270
     H    -2.9775697850   -1.1279966067    0.1152729069
     H    -2.8357067752   -2.3074374457   -1.1921953344
