21
-4.9650894623656188e+02 frame 28   xyz file generated by TeraChem
    Rh    -0.0509254415    0.1211507407   -0.1759912478
     C     0.1719975040    1.3455889195    1.6552597000
     C    -1.1395592182    0.7701792794    1.6397514121
     C     1.1254603358    0.2762835686    1.6900588141
     C     0.4030313523   -0.9605478810    1.7017495188
     C    -0.9964764754   -0.6551178135    1.6668398438
     H     2.2012994756    0.3843415754    1.6907248603
     H     0.4035908103    2.4012702447    1.6208780412
     H    -2.0726416408    1.3147679094    1.5946012238
     H     0.8377005679   -1.9505217922    1.7106602657
     H    -1.8032516856   -1.3746759290    1.6459273025
     C     0.2130072300   -1.1137656970   -1.9948074618
     C    -1.0832691793   -0.5057211419   -2.0315925011
     C     1.1933605152   -0.0683056388   -1.9916754623
     C     0.5039237836    1.1866973492   -2.0351951936
     C    -0.9027012171    0.9155066660   -2.0551161955
     H    -1.6916758011    1.6547315564   -2.0671273396
     H     0.9635176998    2.1653570036   -2.0287564528
     H     2.2651547973   -0.2038868841   -1.9475927420
     H    -2.0308025168   -1.0266121903   -2.0218269954
     H     0.4172890040   -2.1745800452   -1.9477993902
