21
-4.9668514396616479e+02 frame 110   xyz file generated by TeraChem
    Rh     0.1133061814    0.2277375060   -0.4374127314
     C     0.0716401143   -0.4872445095   -2.5966361177
     C     0.8200414480    0.7733360115   -2.3951249618
     C     0.8368047061   -1.5718424700   -2.0000354003
     C     2.0071546340   -1.0147200578   -1.4428620846
     C     2.0260342504    0.3992850976   -1.6589939780
     H     0.4966260737   -2.5953848350   -1.9085898311
     H    -0.8704252470   -0.5710085917   -3.1173528033
     H     0.5613859718    1.7439810493   -2.7932554848
     H     2.7334611296   -1.5527883976   -0.8378770506
     H     2.8149236085    1.0650947420   -1.3237946020
     C    -0.2584195632   -0.0327532568    1.9650716552
     C    -0.4531567014    1.3257937392    2.2091716500
     C    -1.4518731211   -0.5090823860    1.3383143440
     C    -2.3611301795    0.5743609974    1.1881034377
     C    -1.7202841883    1.7225462074    1.7319503941
     H    -2.1216025563    2.7304512034    1.7884392554
     H    -3.3669523565    0.5141799155    0.7941611246
     H    -1.7076944675   -1.5604471799    1.2573107230
     H     0.2326458167    2.0004580846    2.7233545467
     H     0.4900444462   -0.6664628696    2.4338379150
