51
-8.6671785923657944e+02 frame 16   xyz file generated by TeraChem
    Cr    -0.0352747433    0.1321263653   -0.0564423936
     C    -0.2283861585   -1.1741706277    1.6789588319
     C    -1.4028142255   -1.2059886754    0.8257435043
     C     0.8684137438   -1.6781801065    0.9066623730
     C     0.3908808198   -2.0288572465   -0.3892742341
     C    -1.0104347419   -1.7578331882   -0.4469952495
     C     2.3000405328   -1.7966374722    1.3455491880
     C    -0.1826262590   -0.7136432040    3.0929183520
     C    -2.8240219549   -0.9101616170    1.2131460328
     C     1.2006407361   -2.6108007200   -1.5155757153
     C    -1.9104134976   -2.0808114837   -1.6095515804
     C     0.8027129172    1.4094361364   -1.6777436601
     C    -0.6109273172    1.5756851926   -1.5659835182
     C     1.3980892483    1.7895680409   -0.4383048881
     C     0.3568275125    2.1837388576    0.4688585706
     C    -0.9011132485    2.0567376542   -0.2377446176
     C    -2.2439812390    2.5565778614    0.2118998890
     C     0.5505072705    2.8097227309    1.8172531663
     C     2.8759936599    1.8103921579   -0.1695661349
     C    -1.6182964306    1.3659340651   -2.6576414096
     C     1.5374300676    0.9213036040   -2.8900119092
     H    -2.8849312447   -0.1148538990    1.9648912409
     H    -3.3561410607   -1.7870137712    1.6222261310
     H    -3.3982976543   -0.5714756146    0.3418974348
     H     0.8031080120   -0.3050318007    3.3464491722
     H    -0.3931866925   -1.5193053698    3.8172315187
     H    -0.9185748626    0.0790297080    3.2739002626
     H     2.5784886776   -0.9907248005    2.0348354396
     H     2.9792139122   -1.7390796604    0.4865401189
     H     2.5099116490   -2.7493089471    1.8572456680
     H     2.2432460146   -2.2747002293   -1.4825049379
     H     0.7998325620   -2.3026385187   -2.4892652997
     H     1.2129186450   -3.7127914561   -1.5119951926
     H    -1.3746859582   -1.9965539634   -2.5632082894
     H    -2.7655047258   -1.3969477531   -1.6670430490
     H    -2.3220493540   -3.1037945192   -1.5667362627
     H     0.9285021271    0.2121697537   -3.4646835952
     H     2.4677659864    0.4049512262   -2.6280161197
     H     1.8081961687    1.7369311192   -3.5816118695
     H     3.3980636322    1.0472455467   -0.7595289918
     H     3.0977981402    1.6140628452    0.8853680767
     H     3.3345958545    2.7805453506   -0.4229275834
     H    -0.3015665066    2.6070582003    2.4768914113
     H     0.6594865612    3.9068327512    1.7607991713
     H     1.4484495621    2.4237601450    2.3146708970
     H    -2.4186405949    3.6138965691   -0.0561920683
     H    -2.3677742574    2.4760977512    1.2980399617
     H    -3.0534221669    1.9767044251   -0.2480249223
     H    -1.2908220683    0.5908621287   -3.3613942632
     H    -1.8009482758    2.2772077482   -3.2539814151
     H    -2.5889486742    1.0477268094   -2.2607074423
