51
-8.6665637132334768e+02 frame 22   xyz file generated by TeraChem
    Cr    -0.0284191203    0.1431065148   -0.0939800279
     C     1.9516568994    0.9534417380    0.0088584011
     C     1.5735400609    0.1500580841    1.2354279952
     C     1.9480350007    0.1095748406   -1.0984853196
     C     1.5372426710   -1.2089617460   -0.6303433942
     C     1.3280654382   -1.1986255810    0.8296501515
     C     2.2479215762    0.5364701942   -2.5042614934
     C     2.3113762743    2.4100275645   -0.0004793453
     C     1.5693009614    0.5931279518    2.6680127421
     C     1.3871727561   -2.4070381024   -1.5217880570
     C     1.0143919602   -2.3800375665    1.6970414278
     C    -1.9628399573   -0.5833213822   -0.8496590435
     C    -2.0159971139   -0.2684734331    0.5929175619
     C    -1.5793866905    0.5771181281   -1.5228749038
     C    -1.4082002152    1.6666402510   -0.5073305874
     C    -1.6843721276    1.1470447754    0.7977057481
     C    -1.7586586118    1.9454540991    2.0625656261
     C    -1.1030358568    3.1026308898   -0.8214751962
     C    -1.3677486132    0.6711556244   -3.0027163078
     C    -2.4053009767   -1.1959708020    1.7058785953
     C    -2.2199003198   -1.9290411727   -1.4583488090
     H     1.3238921854    1.6567604310    2.7599736093
     H     2.5468167751    0.4385707291    3.1488877589
     H     0.8294229662    0.0362519014    3.2541017701
     H     2.0885573650    2.8741165265   -0.9667386658
     H     3.3821164900    2.5624246271    0.1988720531
     H     1.7575527984    2.9649820863    0.7650929115
     H     1.9520038456    1.5765464643   -2.6778640215
     H     1.7252974703   -0.0845327218   -3.2394557981
     H     3.3232362628    0.4625617313   -2.7203477781
     H     1.1114629645   -2.1198153234   -2.5421054927
     H     0.6139393469   -3.0886979994   -1.1502443514
     H     2.3223788675   -2.9827368910   -1.5848572823
     H     0.4166979759   -3.1304454150    1.1668786197
     H     0.4487766216   -2.0843269958    2.5873137424
     H     1.9297208794   -2.8808700076    2.0458050879
     H    -1.9374984694   -2.7417994487   -0.7797691192
     H    -1.6561762914   -2.0641658797   -2.3872458570
     H    -3.2841145044   -2.0627061881   -1.6994330380
     H    -1.0632144673   -0.2913749639   -3.4270763319
     H    -0.5894122177    1.4002068040   -3.2553506195
     H    -2.2842767551    0.9834939043   -3.5234007349
     H    -0.5344224625    3.5738196469   -0.0132205232
     H    -2.0205382464    3.6931992745   -0.9639820755
     H    -0.5092256413    3.1992556188   -1.7374963531
     H    -2.7661538363    2.3610667032    2.2150975431
     H    -1.0585619724    2.7882287816    2.0500036282
     H    -1.5225540084    1.3359359556    2.9414002968
     H    -2.1717456007   -2.2392323938    1.4679716039
     H    -3.4835112505   -1.1419176159    1.9181831306
     H    -1.8779809862   -0.9441801119    2.6320103230
