24
-5.3930996104546352e+02 frame 16   xyz file generated by TeraChem
     C     4.0963050988    1.2337838275    0.0185013481
     C     4.7906177276    0.0109226865    0.0117442031
     C     4.1020747731   -1.2151710057    0.0008974941
     C     2.7208178543   -1.2295600356   -0.0031508593
     C     2.0054566022    0.0044210735    0.0037818110
     C     2.7149941648    1.2417419670    0.0146527863
     H     2.1554477152    2.1704471799    0.0197953833
     C     0.6169309827    0.0011534319    0.0006590825
     C    -0.6168610082   -0.0019783278   -0.0028509494
     C    -2.0053847108   -0.0050822360   -0.0053857637
     C    -2.7154432887   -1.2421113876   -0.0154716843
     C    -4.0967577627   -1.2332039944   -0.0177519257
     C    -4.7906755280   -0.0101156599   -0.0102218757
     C    -4.1016429896    1.2157117517   -0.0002672462
     C    -2.7203712301    1.2291018054    0.0021982097
     H    -2.1647285834    2.1601242373    0.0097400817
     H    -4.6556150130    2.1482111608    0.0054017377
     H    -5.8761943937   -0.0122392382   -0.0120607461
     H    -4.6473223450   -2.1677003337   -0.0252434751
     H    -2.1563967688   -2.1711167028   -0.0210300909
     H     2.1656537135   -2.1608690324   -0.0112129180
     H     4.6565672707   -2.1473600643   -0.0040953229
     H     5.8761310265    0.0134565282    0.0149531454
     H     4.6464022926    2.1685522689    0.0267629743
