16
-2.3445703663368823e+02 frame 16   xyz file generated by TeraChem
     C    -0.7786631002    0.0134885365   -0.0297431370
     C     0.0509903648    1.1580578866    0.0400008373
     C     1.4731634137    0.7945837453   -0.0140085507
     C     1.5105391133   -0.7426562705    0.1383822574
     C     0.0667361679   -1.1965211169   -0.1632371771
     H    -0.0440983746   -1.5449699589   -1.2074820406
     H    -0.3065771643   -2.0267209179    0.4501448528
     H     2.2416475049   -1.2100887309   -0.5224697437
     H     1.7707497815   -1.0026435015    1.1688003817
     H     2.0741394192    1.3583054888    0.7131125727
     H     1.8610325286    1.1251848408   -0.9988160501
     H    -0.3290609570    2.1734704861    0.1007510925
     C    -2.2468318707    0.0144796205    0.0329201988
     H    -2.5330033651   -0.2402371731    1.0684427452
     H    -2.6703175143   -0.7715770888   -0.6010975525
     H    -2.6742588477    0.9912726539   -0.2037826868
