16
-2.3467183378450446e+02 frame 4   xyz file generated by TeraChem
     C    -0.7615790638    0.0616178495    0.0028594727
     C     0.0237519662    1.1458989954    0.0262070663
     C     1.4914265424    0.8053211549   -0.0869087233
     C     1.5108948969   -0.7266957130    0.1566874294
     C     0.0658410597   -1.2030108846   -0.1303980502
     H    -0.0390851674   -1.6154607262   -1.1459982305
     H    -0.2621431204   -1.9939059153    0.5567662726
     H     2.2591033367   -1.2445280580   -0.4511752150
     H     1.7517284304   -0.9210948255    1.2078708187
     H     2.1191501511    1.3506794335    0.6290843451
     H     1.8729117297    1.0616532203   -1.0878274449
     H    -0.3417078465    2.1691470240    0.0751177249
     C    -2.2578346891    0.0189571102    0.0469844225
     H    -2.6100803352   -0.5679490260    0.9065046434
     H    -2.6648272803   -0.4693314320   -0.8495135444
     H    -2.6913635105    1.0221302930    0.1156570125
