51
-8.8432570494268498e+02 frame 23   xyz file generated by TeraChem
    Mn    -0.0227008538    0.1721624904   -0.1411710486
     C    -0.3480598147   -2.0669571579    1.2877952501
     C     0.6946220693   -1.1498660591    1.6385270826
     C    -1.5938142587   -1.3906905925    1.3799673742
     C    -1.3538931920   -0.0419615867    1.7941440541
     C     0.0715157588    0.1090749537    1.9894136498
     C    -2.9507213656   -1.9330721977    1.0229256216
     C    -0.1151593472   -3.4768182728    0.8203829200
     C     2.1389974542   -1.5167200082    1.8461406458
     C    -2.4187531247    0.9362872342    2.2119300860
     C     0.7382811898    1.2513263349    2.7153177137
     C     0.2990062882    2.3538576749   -1.5670389578
     C     1.5384828256    1.6645677063   -1.6514107681
     C    -0.7511911326    1.4449753926   -1.9193425062
     C    -0.1381553539    0.1779881440   -2.2617462169
     C     1.2883415831    0.3157496294   -2.0634094484
     C     2.3445179881   -0.6901755645   -2.4328193720
     C    -0.8260850650   -0.9830759438   -2.9338045356
     C    -2.1984308502    1.8141472495   -2.0988249509
     C     2.8912262295    2.1853350728   -1.2454505351
     C     0.0699085665    3.7544937834   -1.0676545518
     H     2.4779863271   -2.2541915430    1.1078438216
     H     2.3315853770   -1.9562423912    2.8416488111
     H     2.7957131727   -0.6433537855    1.7569174902
     H    -1.0388957892   -3.9441765440    0.4622903397
     H     0.2815674131   -4.1253990177    1.6170883874
     H     0.6133261377   -3.5228225902   -0.0031414074
     H    -2.8922205702   -2.9524703782    0.6260097242
     H    -3.4552289470   -1.3179994353    0.2620940785
     H    -3.6304394508   -1.9676656895    1.8884197567
     H    -3.3032063570    0.8712295906    1.5655568037
     H    -2.0619429922    1.9722398789    2.1676288303
     H    -2.7724655153    0.7694756660    3.2452872991
     H     0.2223300848    2.2029248785    2.5366004211
     H     1.7799403021    1.3833643551    2.3972538883
     H     0.7573057596    1.1027810028    3.8083488982
     H     0.9941036620    4.2090219499   -0.6939527203
     H    -0.6574405643    3.7789785891   -0.2416427596
     H    -0.3253488169    4.4257920833   -1.8449396507
     H    -2.5151984045    2.5566083356   -1.3550631638
     H    -2.8544374233    0.9433617947   -1.9835345488
     H    -2.4164177145    2.2479654033   -3.0909320258
     H    -0.3165422142   -1.9316761867   -2.7221426128
     H    -0.8629744875   -0.8799807006   -4.0307652950
     H    -1.8628248865   -1.0909118641   -2.5906686778
     H     2.7196840638   -0.5660137047   -3.4637750691
     H     1.9726067389   -1.7188835851   -2.3545967178
     H     3.2166562836   -0.6132975195   -1.7706100017
     H     2.8339317902    3.2072213513   -0.8545007946
     H     3.6083212834    2.2015316190   -2.0795460350
     H     3.3499203427    1.5669599544   -0.4577281763
