51
-8.7429066155374812e+02 frame 19   xyz file generated by TeraChem
    Ru    -0.0277378188    0.1388227965   -0.1191819237
     C     0.1262435041    1.3518640743    1.7132413567
     C    -1.1157599862    0.6221892974    1.7294032551
     C     1.2049658876    0.3970250902    1.6814843991
     C     0.6305355158   -0.9257751575    1.6774666523
     C    -0.8050693151   -0.7857926241    1.7055721581
     C     2.6676848554    0.7252586516    1.7108555687
     C     0.2657492992    2.8433468263    1.7776442613
     C    -2.4851325386    1.2277010930    1.8104353258
     C     1.3985187598   -2.2128065391    1.6778225738
     C    -1.8041388762   -1.9030437571    1.7276482741
     C     0.4705674266   -0.9610675001   -1.9611805714
     C    -0.9485583942   -0.7168332162   -1.9232906236
     C     1.1418345156    0.3144571609   -1.9643004798
     C     0.1351326216    1.3485161059   -1.9302877567
     C    -1.1584023360    0.7089907307   -1.9078928799
     C    -2.4897363024    1.3977823345   -1.9019808213
     C     0.3853374873    2.8264678861   -1.9353244813
     C     2.6257085041    0.5185682779   -2.0249764857
     C    -2.0177562003   -1.7671082150   -1.9601299428
     C     1.1290403440   -2.3059397362   -2.0449247983
     H    -2.5243757702    2.1877147384    1.2861313189
     H    -2.7855123903    1.4072055873    2.8522962134
     H    -3.2369596093    0.5730199015    1.3586142882
     H     1.1743493197    3.1789949474    1.2675131023
     H     0.3142183226    3.2038490192    2.8146485401
     H    -0.5844850546    3.3391198820    1.2976080893
     H     2.8680398149    1.6903721733    1.2342881796
     H     3.2539649997   -0.0315370207    1.1809219384
     H     3.0483538258    0.7806396867    2.7404607952
     H     2.3353603647   -2.1145227828    1.1206237705
     H     0.8222344746   -3.0225975388    1.2202111620
     H     1.6546556519   -2.5278541783    2.6998134392
     H    -1.4130166553   -2.7943529573    1.2281158305
     H    -2.7283416539   -1.6145811546    1.2176222341
     H    -2.0691887249   -2.1884733223    2.7559326554
     H     0.5324466133   -3.0718420474   -1.5388037102
     H     2.1165528419   -2.2948072236   -1.5728979238
     H     1.2628823656   -2.6255924314   -3.0875809779
     H     3.1544820421   -0.3030540820   -1.5310089754
     H     2.9199106619    1.4487945207   -1.5295399604
     H     2.9874610866    0.5653534646   -3.0620680533
     H    -0.3913829093    3.3577453559   -1.3778096979
     H     0.3978812304    3.2324884806   -2.9571571570
     H     1.3481557503    3.0661920042   -1.4737657082
     H    -2.8756204051    1.5364741614   -2.9220406961
     H    -2.4238461813    2.3866191961   -1.4378365137
     H    -3.2334722156    0.8192483214   -1.3449106316
     H    -1.6929850984   -2.6809909474   -1.4522972212
     H    -2.2826662558   -2.0386751689   -2.9914825620
     H    -2.9307932950   -1.4225746654   -1.4643848289
