51
-8.7411231520070169e+02 frame 19   xyz file generated by TeraChem
    Ru     0.1351949492    0.2320279186   -0.0877172972
     C     0.9824498173   -0.3456343997    1.8808843273
     C     0.4772024223   -1.5309504286    1.2086467908
     C     2.0144539697    0.1957986843    1.0355532992
     C     2.1878767783   -0.6939772307   -0.0867423844
     C     1.2334548549   -1.7375043790   -0.0007613847
     C     2.8452000092    1.4259662598    1.2336388491
     C     0.5092457346    0.1966161259    3.1805894969
     C    -0.5707600445   -2.4915499871    1.6677187563
     C     3.1372467941   -0.4849146774   -1.2387758885
     C     1.0671024878   -2.8426253784   -1.0027779813
     C    -0.8103304292    1.1395275270   -1.9737416604
     C    -1.6355620267    0.0561454430   -1.5748106444
     C    -0.8119903926    2.1348912914   -0.9271395728
     C    -1.6194566930    1.6429548387    0.1571741331
     C    -2.1171537746    0.3419465653   -0.2411576972
     C    -3.1321879872   -0.5020136334    0.4539315640
     C    -1.9840921062    2.4191766813    1.3691082668
     C    -0.1316396111    3.4611054856   -1.0560187432
     C    -1.9770562276   -1.1226476510   -2.4341275316
     C    -0.1259861991    1.2744887164   -3.3007626749
     H    -1.3115722679   -2.0191493569    2.3151102605
     H    -0.1041583615   -3.3177293878    2.2159963227
     H    -1.0938245921   -2.9201141511    0.8067931564
     H     0.6065187986    1.2855744900    3.2013565094
     H     1.0999969251   -0.2191406091    4.0041481519
     H    -0.5405800642   -0.0602902251    3.3422958290
     H     2.3302835597    2.1660198162    1.8494414465
     H     3.0741601472    1.8895643323    0.2677824187
     H     3.8015495155    1.1778169384    1.7097288293
     H     3.2623761041    0.5751966745   -1.4798087959
     H     2.7834439229   -0.9875163724   -2.1438377732
     H     4.1313027081   -0.8878075546   -1.0075183999
     H     1.3896593428   -2.5224892377   -1.9985021487
     H     0.0247583809   -3.1611885853   -1.0859871089
     H     1.6675276889   -3.7190767301   -0.7309858485
     H     0.0850135286    0.3016809381   -3.7545814889
     H     0.8172948863    1.8231156974   -3.2303771178
     H    -0.7657410706    1.8248679327   -4.0065363411
     H     0.8127726179    3.3661093772   -1.6022177866
     H     0.0711470367    3.9239681331   -0.0892722355
     H    -0.7660521332    4.1459683831   -1.6375017977
     H    -2.2020524290    1.7615396157    2.2130514838
     H    -2.8794432980    3.0212194573    1.1636523326
     H    -1.1773181516    3.0998221004    1.6506449014
     H    -4.1370187646   -0.1812129784    0.1475251087
     H    -3.0631304061   -0.4225483626    1.5397654883
     H    -3.0239998668   -1.5517720127    0.1696130059
     H    -1.1713950476   -1.3446333631   -3.1412475992
     H    -2.8749423462   -0.9063239524   -3.0299747816
     H    -2.1724585894   -2.0252992789   -1.8519480444
