51
-8.7144468105589203e+02 frame 42   xyz file generated by TeraChem
    Os     0.0347643999    0.1828217992   -0.1312323563
     C     1.2406841300    2.0215472949   -0.0436480599
     C     0.8434667728    1.6569464578    1.2890053723
     C     2.0598025272    0.9604886660   -0.5988179170
     C     2.2013887358   -0.0495454607    0.4297087470
     C     1.4338447174    0.3702067873    1.5746861796
     C     2.7668477456    0.9677979427   -1.9152868739
     C     0.9397871567    3.3250084662   -0.7227465063
     C     0.0371838925    2.5065011670    2.2201842486
     C     3.0391912775   -1.2890064731    0.3442120553
     C     1.3430749797   -0.3590973469    2.8778588399
     C    -0.8846991015   -1.6796917131   -0.9157527659
     C    -1.6230686705   -1.2880731322    0.2559057098
     C    -0.9824950697   -0.6085622765   -1.8837993330
     C    -1.7740341781    0.4488091276   -1.2990686048
     C    -2.1688385538    0.0234459077    0.0228771149
     C    -3.0634392476    0.7755369489    0.9602443436
     C    -2.2108836549    1.7131980920   -1.9740761025
     C    -0.4805699030   -0.6380880521   -3.2988441058
     C    -1.8409344602   -2.1337372224    1.4710996943
     C    -0.1990435382   -2.9964992144   -1.1239182943
     H    -0.6745191776    3.1264217294    1.6669893766
     H     0.6780269240    3.1771418496    2.8096544031
     H    -0.5336799754    1.8906449001    2.9217050255
     H    -0.0293209836    3.7281893016   -0.4123882494
     H     0.9127173108    3.2053909501   -1.8104101339
     H     1.7036333391    4.0803942916   -0.4904027668
     H     2.1987762347    1.5222128873   -2.6690194925
     H     2.9103260006   -0.0498499450   -2.2919520527
     H     3.7581637193    1.4356333808   -1.8352843824
     H     3.1067792400   -1.6508232716   -0.6865740173
     H     2.6206493219   -2.0961012308    0.9532422386
     H     4.0624694363   -1.1009397313    0.6979816533
     H     1.4040542164   -1.4420781401    2.7321623106
     H     0.3963981470   -0.1448973552    3.3830414567
     H     2.1567041046   -0.0686149267    3.5573622013
     H     0.1905784859   -3.3965586946   -0.1829225608
     H     0.6421786789   -2.8942306238   -1.8162526824
     H    -0.8866874446   -3.7437612722   -1.5445851136
     H     0.4362886533   -1.2305275653   -3.3852476915
     H    -0.2565656164    0.3706059659   -3.6602361598
     H    -1.2255354789   -1.0769702714   -3.9775722049
     H    -1.4603638921    2.0537774990   -2.6940760283
     H    -2.3586525009    2.5169343892   -1.2464349704
     H    -3.1565083661    1.5754627140   -2.5175034163
     H    -4.1184295372    0.5143344264    0.7971057318
     H    -2.9641843465    1.8560722939    0.8194288039
     H    -2.8234844083    0.5537245192    2.0045720119
     H    -1.0019455253   -2.8161943298    1.6382315720
     H    -2.7494266715   -2.7433493192    1.3677834629
     H    -1.9550198462   -1.5195321874    2.3696202894
