61
-1.5803588125024044e+03 frame 11   xyz file generated by TeraChem
    Ru    -1.1031186110    0.9560839135    0.1359924079
     N    -0.4474275964    1.4421972973    2.0236119846
     N    -2.7463147333    0.4018975975    1.2176240902
     C    -2.6713493475    0.7484545414    2.5767606010
     C    -3.7838931158    0.5087564615    3.4273465316
     C    -4.9048888324   -0.1149757744    2.9429599481
     C    -4.9333627409   -0.5272598602    1.5882265601
     C    -3.8382726480   -0.2441377125    0.7810066375
     H    -3.8231966868   -0.5210024157   -0.2648897859
     H    -5.7522483923   -0.2975819201    3.5963157235
     H    -5.7898806319   -1.0412794742    1.1718378598
     H    -3.7405094954    0.8194783522    4.4651828948
     C     0.7519378082    1.9247567716    2.3917244390
     C     1.0913473638    2.2633604658    3.6935252896
     C     0.1131140619    2.1009963762    4.7037052386
     C    -1.1260654371    1.6258665922    4.3560601423
     C    -1.4353599474    1.2874171933    3.0073562223
     H    -1.8833176433    1.4923385120    5.1202333060
     H     2.0782105035    2.6507066711    3.9133715153
     H     0.3345267633    2.3496756192    5.7371839432
     H     1.4658286108    2.0337232316    1.5857510171
     N    -1.8721215085    0.1330703265   -1.6091109892
     N    -0.3434895287   -0.9944398683    0.0877048571
     C    -2.7056001024    0.7673421463   -2.4403317108
     C    -3.1787177057    0.2285466812   -3.6232113705
     C    -2.7515369227   -1.0723608623   -3.9831638795
     C    -1.8854478610   -1.7423336655   -3.1578439982
     C    -1.4275306172   -1.1489925201   -1.9558606720
     H    -2.9988450335    1.7584273474   -2.1198185000
     H    -3.8467363569    0.8033531407   -4.2494580379
     H    -3.0976149128   -1.5371636788   -4.8993818960
     H    -1.5499355008   -2.7404801739   -3.4155723082
     C    -0.5717875313   -1.7706437708   -1.0332422427
     C     0.0183228456   -3.0580384325   -1.1373519471
     C     0.7660048057   -3.5626309339   -0.1011502484
     C     0.9308273477   -2.7933605628    1.0729582956
     C     0.3589247134   -1.5368107343    1.0975313408
     H     0.4774307759   -0.8957079541    1.9630607243
     H     1.2181647316   -4.5464977181   -0.1815317183
     H     1.4963839760   -3.1544904258    1.9242856925
     H    -0.1210257013   -3.6412960994   -2.0388466196
     N     0.4225733071    1.7541348522   -1.0268360877
     N    -1.7474262731    2.8166961057   -0.3040718794
     C     1.5108735838    1.0458276030   -1.3657262860
     C     2.5710973416    1.5718867907   -2.0764638190
     C     2.4865602783    2.9350873459   -2.4495630715
     C     1.3673085769    3.6701166794   -2.1306661962
     C     0.2958118038    3.0705642976   -1.4198253183
     H     1.5164946866    0.0168794678   -1.0256139550
     H     3.4259211526    0.9530902916   -2.3203539920
     H     3.3037745738    3.4014133092   -2.9878352547
     H     1.3035548842    4.7133899018   -2.4108291256
     C    -2.9422968245    3.2434290108    0.1226604966
     C    -0.9244547227    3.6559457413   -1.0454395015
     C    -1.3916900739    4.9502398605   -1.3759668586
     C    -2.6277454332    5.3677353204   -0.9373685048
     C    -3.4340914138    4.5026985506   -0.1558747149
     H    -3.5078425140    2.5285517241    0.7081931362
     H    -2.9846637314    6.3575574356   -1.1957704162
     H    -4.4047936569    4.7997921136    0.2196230094
     H    -0.7792346102    5.5979391175   -1.9897730992
