61
-1.5770847718985187e+03 frame 18   xyz file generated by TeraChem
    Os    -1.1213196527    0.9453510474    0.0939378234
     N     0.1780648628    1.2441253364    1.6657260477
     N    -2.4565706873    1.0772964264    1.6588661331
     C    -1.8756006422    1.2863619792    2.8874380501
     C    -2.6534430127    1.3840673063    4.0371003690
     C    -4.0299209757    1.2665864994    3.9483532692
     C    -4.6048097181    1.0397975683    2.7007658745
     C    -3.7962101334    0.9405881725    1.5795239788
     H    -4.2085406586    0.7633953055    0.5989630670
     H    -4.6426755593    1.3429194473    4.8368386861
     H    -5.6751740597    0.9370814823    2.5928682738
     H    -2.1893558754    1.5474041804    4.9990018707
     C     1.5192818733    1.3574993383    1.5711429185
     C     2.3195318281    1.5634179371    2.6806134990
     C     1.7275868151    1.6784485137    3.9348517283
     C     0.3485393767    1.5876186461    4.0350102613
     C    -0.4182261705    1.3715781029    2.8912258685
     H    -0.1261996719    1.6880747182    5.0002164520
     H     3.3913803467    1.6336553884    2.5597036781
     H     2.3291738159    1.8436631401    4.8190503818
     H     1.9421213717    1.2634682877    0.5832815174
     N    -2.5369490369    0.4499087775   -1.3677100082
     N    -1.2855847126   -1.1326673919    0.2141643810
     C    -3.0960812664    1.3667918157   -2.1786805915
     C    -4.0345904799    1.0240934378   -3.1300726737
     C    -4.3975705369   -0.3117487716   -3.2663549422
     C    -3.8045111134   -1.2621152339   -2.4495098831
     C    -2.8701231395   -0.8655234640   -1.5031723603
     H    -2.7864331628    2.3903915069   -2.0342817751
     H    -4.4707357844    1.7932027292   -3.7508550536
     H    -5.1276801769   -0.6117122173   -4.0046936966
     H    -4.0683410314   -2.3038787435   -2.5550971355
     C    -2.1564146243   -1.7662339121   -0.6164307020
     C    -2.3166106195   -3.1456485945   -0.5647136616
     C    -1.5818460935   -3.8875729477    0.3482820901
     C    -0.7043213334   -3.2319240714    1.2035920803
     C    -0.5913122301   -1.8612194719    1.1129429910
     H     0.0764670625   -1.3125273232    1.7600011064
     H    -1.6974419974   -4.9618893373    0.3961796995
     H    -0.1163264809   -3.7715881937    1.9335363360
     H    -3.0084861704   -3.6429648876   -1.2268873649
     N     0.2036623685    0.9920491743   -1.5381067827
     N    -0.9036252370    2.9519319536   -0.3784694433
     C     0.7049872413   -0.1329282554   -2.0845454882
     C     1.5898404028   -0.0981362932   -3.1432927182
     C     1.9619191305    1.1357576799   -3.6675911993
     C     1.4358908651    2.2949222139   -3.1167017412
     C     0.5553811814    2.2027606746   -2.0474664533
     H     0.3909892163   -1.0660263294   -1.6419448905
     H     1.9780580926   -1.0230919826   -3.5455399410
     H     2.6513064797    1.1946343098   -4.4980388742
     H     1.7128492290    3.2572783971   -3.5197803302
     C    -1.5597095048    3.8902154152    0.3333949375
     C    -0.0764497817    3.3233946712   -1.3886848318
     C     0.0986173285    4.6660566035   -1.7024374555
     C    -0.5851541386    5.6304947878   -0.9737374553
     C    -1.4295828198    5.2364554643    0.0596723431
     H    -2.1995498065    3.5355540542    1.1273286803
     H    -0.4591977014    6.6781306475   -1.2094228747
     H    -1.9780783832    5.9583715772    0.6486674306
     H     0.7562651926    4.9625425070   -2.5049714967
