61
-1.5773008906245250e+03 frame 15   xyz file generated by TeraChem
    Os    -1.1001111331    0.9700057879    0.1156561018
     N    -0.5323222350    1.1477804172    2.0966787300
     N    -2.9165021655    0.7299331312    1.0233198339
     C    -2.8805942821    0.8031435167    2.3985109754
     C    -4.0392690771    0.6385497135    3.1519605054
     C    -5.2443327867    0.3874835252    2.5232739165
     C    -5.2647086413    0.2973060610    1.1352392820
     C    -4.0931566592    0.4675458219    0.4183480435
     H    -4.0746372313    0.4073473655   -0.6577702986
     H    -6.1473834299    0.2567810823    3.1036775131
     H    -6.1840872176    0.0943154892    0.6053034131
     H    -3.9979069602    0.6981208499    4.2300278486
     C     0.7063512039    1.3997601056    2.5725200122
     C     0.9756771644    1.5307397104    3.9221242376
     C    -0.0631120783    1.4103803125    4.8383392873
     C    -1.3385719928    1.1693791439    4.3593846882
     C    -1.5642901264    1.0442422251    2.9894527019
     H    -2.1622414495    1.0841300385    5.0531059024
     H     1.9880004271    1.7261025349    4.2468660402
     H     0.1154052217    1.5086533344    5.9006711743
     H     1.4882567111    1.4849344518    1.8349292829
     N    -1.8214061119    0.4393852339   -1.7534792518
     N    -0.9190022795   -1.1251139182   -0.0253329833
     C    -2.2507803088    1.3702500937   -2.6285280047
     C    -2.7185827823    1.0454574274   -3.8847202256
     C    -2.7452028270   -0.2909959090   -4.2726831456
     C    -2.2939893491   -1.2524376709   -3.3845379829
     C    -1.8313136011   -0.8730382136   -2.1325808828
     H    -2.2192347913    2.3924839424   -2.2853216068
     H    -3.0562157812    1.8304320859   -4.5454165189
     H    -3.1060368270   -0.5777580584   -5.2496099560
     H    -2.2982545737   -2.2940086577   -3.6691504179
     C    -1.3252360055   -1.7860399525   -1.1352254185
     C    -1.2437668874   -3.1714449756   -1.2441417074
     C    -0.7395787152   -3.9119620878   -0.1869467161
     C    -0.3319709339   -3.2403871749    0.9581726778
     C    -0.4396964655   -1.8671019089    0.9972010967
     H    -0.1300507126   -1.3129699639    1.8702040646
     H    -0.6706063759   -4.9887619243   -0.2531733238
     H     0.0641475330   -3.7702256543    1.8137911794
     H    -1.5748625769   -3.6698769683   -2.1419698345
     N     0.6768900788    1.4383144587   -0.8842331741
     N    -1.1597692915    2.9871720328   -0.1524706148
     C     1.5695336098    0.5002284129   -1.2581206512
     C     2.7429494245    0.8169054405   -1.9092953381
     C     3.0160353764    2.1509464531   -2.1927531870
     C     2.0996814401    3.1194548456   -1.8171510888
     C     0.9335845966    2.7401984111   -1.1640153750
     H     1.3207525192   -0.5193911734   -1.0071998723
     H     3.4290537074    0.0287899430   -2.1850689685
     H     3.9272827306    2.4316901475   -2.7007917302
     H     2.2919248520    4.1590669563   -2.0349436210
     C    -2.2203595324    3.6993759178    0.2786353462
     C    -0.1124159899    3.6358522525   -0.7272704349
     C    -0.1198334640    5.0182687787   -0.8720237518
     C    -1.2119776487    5.7451072726   -0.4242421281
     C    -2.2807442154    5.0719873445    0.1591916187
     H    -3.0243093516    3.1351401260    0.7257470593
     H    -1.2303326627    6.8203523530   -0.5302745313
     H    -3.1509601868    5.6010133634    0.5216211882
     H     0.7153510181    5.5249461001   -1.3304609788
