13
-7.1795479317546938e+02 frame 17   xyz file generated by TeraChem
    Fe    -1.3888231858    0.2236813649    0.2026177670
     C    -1.2918917778    2.0994029983   -0.2577996334
     C    -3.2649991508    0.2002335557   -0.2677359307
     C     0.5397991658    0.1808711921    0.3483795118
     N    -1.6479936107    0.4853269388    1.7979436168
     C    -1.0856999635   -0.0811866522   -1.6849700543
     C    -1.4191109055   -1.7062484396    0.3410056170
     N    -1.4319789030   -2.8713528643    0.4266140895
     N    -1.2349422231    3.2328250735   -0.5354971986
     O    -1.8301948966    0.6696931644    2.9075570464
     N    -4.3984037021    0.1787082872   -0.5504729334
     N    -0.9029306127   -0.2656953934   -2.8237510651
     N     1.7045895657    0.1588907747    0.4364289670
