13
-6.5148489567785145e+02 frame 37   xyz file generated by TeraChem
    Ru    -0.8082926456   -0.6791589872   -1.8411136863
     C    -2.2963069117   -2.1221628803   -1.7933669003
     C     0.6796299859    0.7640605982   -1.8822303906
     C    -0.5077282804   -0.8283255229    0.1490023191
     C    -1.1074470733   -0.5294923472   -3.8274976977
     C    -2.2082492546    0.8368732333   -1.6403411802
     C     0.5918339791   -2.1960079217   -2.0359824698
     N    -3.1427580854   -2.9326683859   -1.7724118888
     N     1.3826446472   -3.0582150781   -2.1066614039
     N    -2.9989069403    1.6982944027   -1.5592382282
     N     1.5262758519    1.5745721180   -1.8922009187
     N    -0.3282574251   -0.9222275234    1.3027379838
     N    -1.2862878476   -0.4346617055   -4.9816255385
