35
-1.4448202204800150e+03 frame 64   xyz file generated by TeraChem
    Si    -0.0025969063    0.0160867031   -0.4444479922
    Cl    -0.0327018830    0.0888984588   -2.5648131542
     C     0.1220186926   -1.7744008059    0.0547800435
     C     1.1522707333   -2.6137736879   -0.4074773857
     C     1.2619775630   -3.9277568112    0.0479772164
     C     0.3311307739   -4.4329358547    0.9606224820
     C    -0.7056526658   -3.6183550679    1.4157812263
     C    -0.8024152340   -2.2978056993    0.9736722707
     H    -1.6127357987   -1.6737435380    1.3393320387
     H    -1.4355180233   -4.0067280082    2.1204672044
     H     0.4129921854   -5.4586487359    1.3088857828
     H     2.0666170026   -4.5605898534   -0.3160688000
     H     1.8782343631   -2.2380188683   -1.1245779296
     C     1.4981631246    1.0014038342    0.0535507079
     C     1.6499436974    2.3263680722   -0.3965394955
     C     2.7586032574    3.0881231544   -0.0322627417
     C     3.7553074148    2.5253231531    0.7681530306
     C     3.6229737958    1.2114936378    1.2185200359
     C     2.4925548729    0.4623271030    0.8845781211
     H     2.4090933623   -0.5616298621    1.2370106843
     H     4.3989869972    0.7696871214    1.8371390055
     H     4.6328077221    3.1081750794    1.0332367606
     H     2.8569060635    4.1073330094   -0.3957214508
     H     0.8987797367    2.7654227128   -1.0493832866
     C    -1.6151229371    0.7802202980    0.0998626054
     C    -2.8144506668    0.3588004965   -0.5076974315
     C    -4.0381328907    0.9049132820   -0.1256933314
     C    -4.0815288005    1.8872548677    0.8666345080
     C    -2.9031310861    2.3090964261    1.4871736597
     C    -1.6768772301    1.7587082367    1.1047112266
     H    -0.7616897617    2.1096159801    1.5738444610
     H    -2.9367291252    3.0759619459    2.2555268205
     H    -5.0339496081    2.3221201508    1.1565942447
     H    -4.9537099102    0.5768148833   -0.6101609411
     H    -2.7908015310   -0.3894242141   -1.2959847963
