35
-9.8515519352682304e+02 frame 67   xyz file generated by TeraChem
    Si    -2.6880394612    1.2755920826    0.7393233853
     C    -0.8231051100    1.1597369856    0.8845447296
     C    -3.6350384449    0.7317418484    2.2639528397
     H    -3.1001171593    0.3685781971   -0.3746702302
     C    -3.1918825607    3.0222874394    0.2691246185
     C    -4.4788541986    3.2696424873   -0.2423263436
     C    -2.3193570678    4.1132712318    0.4204962215
     C    -2.7080425781    5.4030690252    0.0488783636
     C    -3.9880760837    5.6269053539   -0.4620097618
     C    -4.8776929065    4.5576281868   -0.6004688044
     H    -4.2911590123    6.6284637764   -0.7548994576
     H    -5.8737668512    4.7262071353   -1.0010602037
     H    -5.1775816252    2.4455784578   -0.3712870949
     H    -1.3164150486    3.9507813037    0.8065862145
     H    -2.0129634266    6.2314257149    0.1567180920
     C    -0.1598887091    1.0689928153    2.1182789593
     C     1.2353626530    1.0325058239    2.1841924347
     C     1.9937251862    1.0861312200    1.0138692666
     C     1.3519262728    1.1742997268   -0.2242357293
     C    -0.0410518721    1.2093666824   -0.2843279049
     H    -0.5247921546    1.2767366851   -1.2569028897
     H    -0.7387002499    1.0215852318    3.0374103371
     H     1.7297996031    0.9621926907    3.1492801183
     H     3.0787035241    1.0577416834    1.0642307623
     H     1.9356289147    1.2132401832   -1.1401184931
     C    -3.6381977380   -0.6174756274    2.6621187698
     C    -4.4459542113   -1.0523751164    3.7136228146
     H    -3.0158530490   -1.3393774635    2.1372219229
     C    -5.2808250309   -0.1433009520    4.3680053909
     H    -4.4426824273   -2.0988652328    4.0058802486
     C    -5.2815486754    1.2016689939    3.9939852998
     H    -5.9271489534   -0.4827013652    5.1729246913
     C    -4.4581384971    1.6354163251    2.9548913343
     H    -5.9284396382    1.9088673494    4.5060542023
     H    -4.4840536126    2.6790712201    2.6546958954
