35
-9.8492200040172293e+02 frame 33   xyz file generated by TeraChem
    Si    -2.4485662594    1.1500202443    0.5432806233
     C    -0.6189509615    1.1642094695    0.8457824817
     C    -3.5664368134    0.7775545942    2.0206892377
     H    -2.8195933418    0.2525593760   -0.5708042237
     C    -3.2383948883    2.8407712286    0.2726618086
     C    -4.4881543571    2.9077053119   -0.4083687777
     C    -2.6552170997    4.0325198414    0.7741850755
     C    -3.2332388852    5.2562930333    0.4889436341
     C    -4.4420966670    5.3105424048   -0.2379600413
     C    -5.0633737999    4.1359819032   -0.6896835074
     H    -4.9049902900    6.2732673941   -0.4316835309
     H    -5.9965487158    4.1907217915   -1.2402385172
     H    -4.9764686731    1.9936080855   -0.7329235920
     H    -1.7248031611    3.9887280169    1.3318496360
     H    -2.7606519263    6.1757160974    0.8189515888
     C    -0.0457336293    1.5567703155    2.0700162822
     C     1.3386307956    1.5805465430    2.2342173546
     C     2.1735680082    1.2093515786    1.1775294824
     C     1.6203510338    0.8119365332   -0.0415664338
     C     0.2351852142    0.7878716649   -0.2076988302
     H    -0.1808017371    0.4731552462   -1.1617159281
     H    -0.6778931593    1.8355905195    2.9075608366
     H     1.7652239731    1.8836339357    3.1858771978
     H     3.2520377726    1.2256263773    1.3060817608
     H     2.2676978591    0.5175315529   -0.8623209767
     C    -4.5717350174   -0.2129892359    1.9045295941
     C    -5.3472796480   -0.5484966985    3.0025014760
     H    -4.6968666949   -0.7501503732    0.9701364887
     C    -5.1881055755    0.1505158629    4.2167125315
     H    -6.0743845516   -1.3512636480    2.9320911582
     C    -4.2467965754    1.1819592805    4.3289893799
     H    -5.8196868720   -0.0988002724    5.0637911321
     C    -3.4689180049    1.5205424814    3.2315894862
     H    -4.1448713768    1.7300007443    5.2597708005
     H    -2.7763561748    2.3510988995    3.3112053116
