19
-8.0839354732540653e+02 frame 8   xyz file generated by TeraChem
     C     0.1008963885    0.4502092810   -0.0004558713
     C     1.4408651780    0.1401254724   -0.0005360635
     C     1.8868816998   -1.2002239505   -0.0002142912
     C     0.9546104395   -2.2477888901    0.0002146867
     C    -0.3966730083   -1.9651645139    0.0003181598
     C    -0.8556506800   -0.6097048942   -0.0000246168
     C    -2.2581977422   -0.3888818825    0.0000770754
     C    -2.8890214996    0.8469798554   -0.0002454508
     C    -4.3529259098    1.0102258898   -0.0001567190
     H    -4.8871391615    0.0582907098    0.0001806777
     H    -4.6521444256    1.6096970637    0.8731777134
     H    -4.6523004098    1.6091589139   -0.8738076304
     H    -2.2954631314    1.7578901482   -0.0005986532
     H    -2.8900935770   -1.2740733810    0.0004264206
     H    -1.1300980832   -2.7643443737    0.0006573530
     H     1.3044989767   -3.2738993038    0.0004674133
     H     2.9507885007   -1.4105839178   -0.0002979837
    Cl     2.6321519195    1.4162864128   -0.0010429546
     H    -0.2149225747    1.4855082605   -0.0007130654
