61
-1.5412573939600670e+03 frame 14   xyz file generated by TeraChem
    Ir     0.0159500616   -0.0039568909    0.0120549946
     C    -0.4100705281   -1.6910555357    1.0359507645
     C    -0.4602524799   -1.8654362799    2.4319321693
     C    -0.7742579478   -3.0946008444    3.0136217222
     C    -1.0561332740   -4.2068871916    2.2107890284
     C    -1.0211932289   -4.0738538690    0.8264134416
     C    -0.7031719140   -2.8370934955    0.2391347693
     C    -0.6462849416   -2.6492169824   -1.2150769157
     C    -0.8858255016   -3.6413457379   -2.1769831654
     C    -0.8004495122   -3.3328879523   -3.5289947930
     C    -0.4717008682   -2.0302933976   -3.9142732375
     C    -0.2422908675   -1.0883494509   -2.9205300201
     N    -0.3297216278   -1.3848513004   -1.6134327069
     H     0.0205798894   -0.0636943081   -3.1587171515
     H    -0.3922849984   -1.7478485769   -4.9581529087
     H    -0.9859308085   -4.0995180977   -4.2751084136
     H    -1.1363933668   -4.6483797629   -1.8652128218
     H    -1.2427408220   -4.9382797922    0.2065935173
     H    -1.3021692430   -5.1645853442    2.6606926652
     H    -0.7996346798   -3.1897874080    4.0972012826
     H    -0.2414207074   -1.0184898785    3.0761425257
     C     1.9996758396   -0.3461423389   -0.1384127841
     C     2.7363949288   -1.4070072623    0.4209966947
     C     4.1124748320   -1.5347794760    0.2263357019
     C     4.8085638513   -0.5989784676   -0.5489864476
     C     4.1144376809    0.4597724094   -1.1258705872
     C     2.7292700220    0.5913775635   -0.9277040611
     C     1.9524066502    1.6895988002   -1.5138376370
     C     2.4720280515    2.7324325263   -2.2947436516
     C     1.6253090576    3.7185396499   -2.7860060746
     C     0.2606584003    3.6594013967   -2.4901338970
     C    -0.1995099343    2.6066162187   -1.7112163118
     N     0.6172857847    1.6485487599   -1.2430209788
     H    -1.2459102854    2.5073124270   -1.4450316044
     H    -0.4331227006    4.4111589734   -2.8495773008
     H     2.0249564090    4.5271723426   -3.3903551704
     H     3.5331308567    2.7711354054   -2.5109085572
     H     4.6566735541    1.1808915224   -1.7312523347
     H     5.8792560084   -0.6978303098   -0.7038241762
     H     4.6478106988   -2.3673817059    0.6780791121
     H     2.2175641564   -2.1456248409    1.0253885538
     C     0.1365452573    1.1913702864    1.6336622061
     C     1.2823759260    1.5107254450    2.3864403179
     C     1.2267721257    2.3516434218    3.4988972599
     C     0.0087052152    2.9130331071    3.9019232902
     C    -1.1450250020    2.6273755965    3.1789976278
     C    -1.0903370556    1.7810028592    2.0581372222
     C    -2.2799028072    1.4479836579    1.2660913157
     C    -3.5818366311    1.9075258622    1.5128654323
     C    -4.6264763316    1.5128360097    0.6860307884
     C    -4.3660813065    0.6553236532   -0.3863435388
     C    -3.0588092830    0.2318785182   -0.5832290268
     N    -2.0462348360    0.6176519976    0.2106240884
     H    -2.7924800724   -0.4333018158   -1.3968226525
     H    -5.1523543331    0.3201820144   -1.0536584697
     H    -5.6346491458    1.8681298016    0.8762412052
     H    -3.7726191348    2.5689942861    2.3495920857
     H    -2.0880142019    3.0663662392    3.4926492482
     H    -0.0380870719    3.5678595806    4.7674540147
     H     2.1344551519    2.5716929445    4.0570027994
     H     2.2384507414    1.0851857380    2.0950330511
