61
-1.5412660384148430e+03 frame 4   xyz file generated by TeraChem
    Ir     0.0319629946   -0.0652795195    0.0501132662
     C     0.7935625751   -1.6331169763   -1.0051497375
     C     1.0208575660   -2.9446647975   -0.5679843106
     C     1.5698016346   -3.9148213246   -1.4044269775
     C     1.9149922662   -3.6075517558   -2.7237178418
     C     1.6925782018   -2.3305623733   -3.2024728001
     C     1.1286914017   -1.3543388188   -2.3649137710
     C     0.8617832880   -0.0144716745   -2.7996299135
     C     1.0224024955    0.5124358166   -4.0904247942
     C     0.7334461494    1.8338499957   -4.3595809907
     C     0.2769530147    2.6478054903   -3.3109806034
     C     0.1196357198    2.0750424679   -2.0667128976
     N     0.3772257129    0.7913209029   -1.7954320772
     H    -0.2368222909    2.6570204768   -1.2266719292
     H     0.0558483082    3.6967976309   -3.4562676315
     H     0.8606828652    2.2320670868   -5.3589469951
     H     1.3773106000   -0.1333773633   -4.8828843288
     H     1.9722703107   -2.0898279244   -4.2224550900
     H     2.3540183637   -4.3618765803   -3.3678935409
     H     1.7344536076   -4.9189389459   -1.0252544176
     H     0.7715590093   -3.2060481973    0.4531987304
     C     1.7881702880    0.6610768021    0.5796790649
     C     3.0189363564    0.0405311340    0.3287972422
     C     4.2228374873    0.5817716026    0.7715291627
     C     4.2445366358    1.7767346920    1.4964783461
     C     3.0550178419    2.4296968308    1.7577868273
     C     1.8419039524    1.8894834716    1.2993817861
     C     0.5807033975    2.5171281779    1.5066743843
     C     0.3305539557    3.7706728540    2.0853513233
     C    -0.9525195979    4.2615935270    2.1857002588
     C    -2.0038033425    3.4774125044    1.6889461315
     C    -1.6957608585    2.2612525838    1.1141194781
     N    -0.4535529779    1.7739522949    1.0074563514
     H    -2.4722747299    1.6216635705    0.7155605629
     H    -3.0347167804    3.7994100950    1.7532951618
     H    -1.1400174122    5.2308789177    2.6319912133
     H     1.1630556265    4.3603877093    2.4462823649
     H     3.0686482861    3.3525576974    2.3279976602
     H     5.1828041978    2.1895579835    1.8515582450
     H     5.1537312277    0.0655720065    0.5573837169
     H     3.0292376071   -0.8958108798   -0.2146755784
     C    -0.3888613273   -1.1802725452    1.7362894362
     C     0.4028030609   -1.4892254185    2.8495970176
     C    -0.0572884001   -2.2933820048    3.8876193192
     C    -1.3519457021   -2.8139367803    3.8374223511
     C    -2.1752491564   -2.5064992603    2.7675430965
     C    -1.7338557371   -1.6853015979    1.7127533616
     C    -2.5965053893   -1.3073046067    0.5867131255
     C    -3.9530589527   -1.6485738612    0.4880529452
     C    -4.7000133963   -1.2637159612   -0.6094064087
     C    -4.0906394241   -0.5252888137   -1.6416088978
     C    -2.7570971253   -0.1911479901   -1.5040462115
     N    -2.0388048166   -0.5438968032   -0.4308453287
     H    -2.2297533112    0.3789369534   -2.2577724191
     H    -4.6354136859   -0.2259516664   -2.5271099349
     H    -5.7475606446   -1.5333212256   -0.6724955240
     H    -4.4164689497   -2.2164310634    1.2843378828
     H    -3.1777497077   -2.9211166699    2.7481732386
     H    -1.7175859823   -3.4510767063    4.6358723848
     H     0.5892749318   -2.5182571039    4.7304435471
     H     1.4134224612   -1.1019633660    2.8912134666
