61
-1.5801404753016786e+03 frame 12   xyz file generated by TeraChem
    Ru     0.0027269439    0.0000967861   -0.0025526092
     N    -0.1486350011    1.4471667433    1.5047624256
     C     0.0289085703    1.2181025745    2.8179199690
     C    -0.0730886800    2.2287866103    3.7663717145
     C    -0.3653750245    3.5240974183    3.3402967797
     C    -0.5454156361    3.7657643870    1.9816798995
     C    -0.4317221342    2.7090323331    1.0759416179
     C    -0.6099483473    2.8559388736   -0.3803776325
     C    -0.9243007925    4.0633175178   -1.0074973580
     C    -1.0690223972    4.1023108792   -2.3915516375
     C    -0.8965060043    2.9277661631   -3.1229279767
     C    -0.5850858567    1.7555106128   -2.4440636192
     N    -0.4417991463    1.7159896888   -1.1071201893
     H    -0.4388338125    0.8200256440   -2.9695015039
     H    -0.9999172979    2.9107692125   -4.2020053651
     H    -1.3131771369    5.0357298402   -2.8877322839
     H    -1.0564976735    4.9652232705   -0.4231944495
     H    -0.7708195440    4.7660427843    1.6333169271
     H    -0.4515530058    4.3371067986    4.0533713695
     H     0.0764853326    1.9964458859    4.8146911436
     H     0.2553254014    0.1974265568    3.1005583704
     N    -2.0271810672   -0.4900733525   -0.0650995478
     C    -2.9656584976    0.0170772774    0.7534829763
     C    -4.3070074203   -0.3328189712    0.6544960796
     C    -4.6911699492   -1.2401968333   -0.3319938427
     C    -3.7221013801   -1.7640333497   -1.1832031886
     C    -2.3889787034   -1.3753749616   -1.0340620728
     C    -1.2873546944   -1.8705194356   -1.8781709726
     C    -1.4508695259   -2.8016998254   -2.9060140275
     C    -0.3462997257   -3.2020997869   -3.6524715078
     C     0.9044947381   -2.6624067678   -3.3549528246
     C     1.0043709620   -1.7411433662   -2.3193178251
     N    -0.0602734755   -1.3502069230   -1.5967303908
     H     1.9525575827   -1.2923694104   -2.0510158747
     H     1.7923171723   -2.9451100044   -3.9092365324
     H    -0.4631535667   -3.9244934987   -4.4533926343
     H    -2.4292840908   -3.2116558476   -3.1230513017
     H    -4.0036869752   -2.4675732713   -1.9566175263
     H    -5.7291440390   -1.5366222226   -0.4404870909
     H    -5.0270397144    0.1012019753    1.3390188412
     H    -2.6163703764    0.7156214601    1.5036521897
     N     0.6088927623   -1.5863884075    1.2198632026
     C    -0.2184732763   -2.4956762041    1.7642410219
     C     0.2443681293   -3.5445822461    2.5493244318
     C     1.6154571516   -3.6559267803    2.7774990695
     C     2.4750345348   -2.7172372288    2.2141360088
     C     1.9502099972   -1.6843134542    1.4338309098
     C     2.7692991040   -0.6407214814    0.7915761125
     C     4.1576301759   -0.5519681166    0.9146667927
     C     4.8428151982    0.4700436698    0.2636951147
     C     4.1227837678    1.3877387930   -0.4999092158
     C     2.7424386184    1.2493941018   -0.5838310726
     N     2.0776550379    0.2614315476    0.0412089209
     H     2.1400898688    1.9359821439   -1.1655295805
     H     4.6133686024    2.2002730060   -1.0239095730
     H     5.9212610384    0.5466264649    0.3538516991
     H     4.7008446600   -1.2714861900    1.5140530183
     H     3.5424902733   -2.7920438407    2.3795669227
     H     2.0134218405   -4.4622653281    3.3844663861
     H    -0.4612767459   -4.2533868893    2.9676047816
     H    -1.2734615492   -2.3636629249    1.5585907302
