19
-3.4879030996695366e+02 frame 15   xyz file generated by TeraChem
     C     0.5309823300    1.2500306423    0.0544373098
     C     1.9085845978    1.1951207588    0.0753719042
     C     2.5610363781   -0.0481786225    0.0218265382
     C     1.8197039065   -1.2456576655   -0.0522345678
     C     0.4430103724   -1.2019197622   -0.0729355334
     C    -0.2488000241    0.0479392259   -0.0210385184
     C    -1.6858916161    0.0720106984   -0.0439983808
     C    -2.4698606166   -1.2090694395   -0.1055643034
     H    -3.5417337958   -1.0074427321   -0.1087292936
     H    -2.2185121894   -1.7742410992   -1.0100687758
     H    -2.2364307037   -1.8475378802    0.7537170114
     C    -2.3859481557    1.2731609224   -0.0092963841
     H    -3.4705036188    1.2636777217   -0.0282871581
     H    -1.9070607424    2.2429197604    0.0354827418
     H    -0.1195536619   -2.1247715320   -0.1301836083
     H     2.3359660439   -2.1985227214   -0.0927429986
     H     3.6456282651   -0.0887424135    0.0379581838
     H     2.4880463696    2.1097682340    0.1333875505
     H     0.0465337611    2.2162660044    0.0985324826
