19
-3.4900306254508763e+02 frame 15   xyz file generated by TeraChem
     C     0.5338799254    1.2162372344    0.1933642962
     C     1.9249375362    1.1621119764    0.2060891294
     C     2.5870419468   -0.0548138565    0.0147956857
     C     1.8372712779   -1.2140250317   -0.1832516815
     C     0.4422239138   -1.1576920038   -0.1971902402
     C    -0.2405517622    0.0592880153   -0.0212302162
     C    -1.7271444811    0.1089594638   -0.0585213005
     C    -2.4756943513   -1.1986582938    0.0617627451
     H    -3.5539855110   -1.0240698030    0.1056705908
     H    -2.2766199044   -1.8513629731   -0.7975268300
     H    -2.1751904492   -1.7543105037    0.9583379946
     C    -2.4050195575    1.2562772118   -0.2262718919
     H    -3.4911405967    1.2618525010   -0.2444031269
     H    -1.9155242959    2.2149543888   -0.3662912479
     H    -0.1158114473   -2.0736835412   -0.3568056246
     H     2.3355890933   -2.1687736531   -0.3277220183
     H     3.6724313367   -0.0970453241    0.0288252001
     H     2.4949062734    2.0715277282    0.3759733754
     H     0.0435979532    2.1680365645    0.3700293608
