19
-3.6135671420010863e+02 frame 8   xyz file generated by TeraChem
     C    -0.5119525957   -0.1862552975   -0.0001532787
     C     0.7361271451    0.3853742004   -0.0002090371
     C     0.9196181321    1.7824814542   -0.0000971371
     C    -0.2020987464    2.6269220704    0.0000876944
     C    -1.4718235165    2.0856350536    0.0001631045
     C    -1.6589677105    0.6671544225    0.0000344631
     C    -2.9904124249    0.1741603017    0.0001022244
     C    -3.3621065547   -1.1628984512   -0.0001383752
     C    -4.7622998307   -1.6184956114   -0.0000677269
     H    -4.9333801313   -2.2661881462   -0.8736276159
     H    -4.9331024619   -2.2668143190    0.8730783884
     H    -5.4792134531   -0.7953868968    0.0003316685
     H    -2.5981474259   -1.9361903292   -0.0004307435
     H    -3.7851622620    0.9166174090    0.0003362902
     H    -2.3465928265    2.7271996337    0.0003101105
     H    -0.0594254859    3.7017629795    0.0001729644
     H     1.9188774124    2.2040509619   -0.0001500933
    Br     2.3185876044   -0.7602410243   -0.0004514687
     H    -0.6250066677   -1.2627772114   -0.0002366320
