25
-5.7668522621066120e+02 frame 91   xyz file generated by TeraChem
     C     1.1361323582   -1.0107760354    0.0377992690
     C    -0.2242275629   -1.1873270343   -0.0806458074
     C    -1.0659212266   -0.0700984943   -0.2666783523
     C    -0.5327943141    1.2325223291   -0.3494296585
     C     0.8310497315    1.4111995605   -0.2908809633
     C     1.7048246348    0.2970489664   -0.0902176986
     C     3.0996887016    0.5537287469   -0.0475241145
     C     4.0948301144   -0.3864518435    0.1811457958
     C     5.5320594953   -0.0647983198    0.1711781678
     H     6.0411019571   -0.7099479617   -0.5611584287
     H     5.9749147157   -0.3318499293    1.1430173646
     H     5.7331374676    0.9845668911   -0.0531902646
     H     3.8249578615   -1.4195320986    0.3854367538
     H     3.4117849927    1.5824050536   -0.2133431825
     H     1.2611976446    2.4023280838   -0.3890428769
     H    -1.1971509632    2.0774759492   -0.4855984293
     C    -2.5423230164   -0.2961666415   -0.3872424744
     O    -3.0351500844   -1.2317776937   -0.9875172145
     O    -3.2090439812    0.6398476143    0.2956662085
     C    -4.6412725287    0.4768578672    0.4139909592
     H    -5.1085247664    0.4833847482   -0.5717923584
     H    -4.8601528068   -0.4614792797    0.9292522448
     H    -4.9745984273    1.3260963095    1.0089320996
     H    -0.6626685601   -2.1756485953   -0.0013581578
     H     1.7725987631   -1.8693367926    0.2150327185
