25
-5.7690257205914759e+02 frame 9   xyz file generated by TeraChem
     C     1.1557377035   -1.0268334031    0.0011522228
     C    -0.2177950326   -1.2163240663    0.0000374826
     C    -1.0915123880   -0.1170710799    0.0006704599
     C    -0.5585104390    1.1791294490    0.0023985387
     C     0.8193803752    1.3641474420    0.0035450545
     C     1.7071201420    0.2711706187    0.0028218863
     C     3.1505758762    0.5354470470    0.0039909527
     C     4.1355632465   -0.3770324022   -0.0021216201
     C     5.5957135620   -0.0443472389   -0.0010401095
     H     6.0942416092   -0.4680654254   -0.8834119827
     H     6.0954735550   -0.4788643202    0.8753603311
     H     5.7638633382    1.0374726948    0.0054401281
     H     3.8911678754   -1.4386718372   -0.0086378077
     H     3.4232418275    1.5908386187    0.0099827921
     H     1.2245907881    2.3724247871    0.0049508387
     H    -1.2224678018    2.0359685075    0.0029061160
     C    -2.5516430456   -0.3774266186   -0.0003789380
     O    -3.0550287462   -1.4908639861   -0.0014957400
     O    -3.2805580875    0.7558588708   -0.0001775041
     C    -4.7097665345    0.5848229682   -0.0021391321
     H    -5.0262060918    0.0401373456   -0.8949700766
     H    -5.0286327174    0.0394542066    0.8894102746
     H    -5.1225493541    1.5930385373   -0.0023071802
     H    -0.6349875311   -2.2177179877   -0.0011650591
     H     1.8074380709   -1.8944213278    0.0010096719
