19
-8.0839230746138753e+02 frame 8   xyz file generated by TeraChem
     C    -0.9380494301    0.5530251300   -0.0680793223
     C    -2.2527151751    0.1256147005   -0.0631957843
     C    -2.5304412126   -1.2443814695    0.0190350603
     C    -1.4911948066   -2.1937816771    0.0981350207
     C    -0.1824654465   -1.7758184115    0.0900445197
     C     0.1557366737   -0.3855093753    0.0028944846
     C     1.4992821817    0.0654294976   -0.0207181387
     C     2.6243060759   -0.7440289491    0.0338860174
     C     3.9998627946   -0.2177034124   -0.0071284144
     H     4.5423668548   -0.5462443155    0.8925351360
     H     4.5389923751   -0.6768596629   -0.8497599503
     H     4.0385884790    0.8701833672   -0.0886248188
     H     2.5199657592   -1.8229770754    0.1093388135
     H     1.6698238550    1.1348671773   -0.0917633444
     H     0.6115685154   -2.5092517059    0.1503047345
     H    -1.7270309353   -3.2497940337    0.1647403857
     H    -3.5647506977   -1.5727137527    0.0235205135
     H    -3.0591499410    0.8469390431   -0.1212541919
    Cl    -0.6339123196    2.2602735252   -0.1625613209
