19
-8.0860448274004420e+02 frame 13   xyz file generated by TeraChem
     C    -0.9283210892    0.5046067469   -0.1191249643
     C    -2.2580289732    0.0903442024   -0.1706711130
     C    -2.5609052177   -1.2612031894   -0.0171768264
     C    -1.5286312500   -2.1796877957    0.1920746225
     C    -0.2084851488   -1.7461754804    0.2399426696
     C     0.1411044411   -0.3902366654    0.0725394815
     C     1.5401436968    0.0584273143    0.1096327457
     C     2.6151704558   -0.7171100978   -0.0987223928
     C     4.0299168782   -0.2272079712   -0.0394452759
     H     4.5979179515   -0.7632013490    0.7331495316
     H     4.5491247611   -0.4103279813   -0.9897275398
     H     4.0756557369    0.8443082589    0.1802676270
     H     2.4855021292   -1.7722971053   -0.3377228553
     H     1.6997822925    1.1155146478    0.3071317740
     H     0.5818368223   -2.4653553221    0.4290683007
     H    -1.7539907276   -3.2330227519    0.3292997330
     H    -3.5955241647   -1.5880083200   -0.0530578746
     H    -3.0431572536    0.8211228981   -0.3315303586
    Cl    -0.6183277404    2.2367785613   -0.3245778849
