19
-2.7399855116333458e+02 frame 5   xyz file generated by TeraChem
     C     0.3091906990   -1.2136553350   -0.0924280403
     C     1.0106113875   -0.0756492163    0.0063751254
     C     2.5153340015   -0.0589571157    0.0562881758
     H     2.8718674365    0.4400187071    0.9687149692
     H     2.9322883676    0.5068651128   -0.7885846332
     H     2.9362815515   -1.0696688626    0.0342814720
     C     0.3303353896    1.2753120973    0.0811244418
     C    -1.1509819517    1.2222613899   -0.3146677441
     C    -1.8452898527    0.0282619147    0.3481592633
     C    -1.1979625798   -1.2866956180   -0.1080962019
     H    -1.5442013659   -1.5394259745   -1.1232667748
     H    -1.5327231407   -2.1160364165    0.5299646799
     H    -1.7537297080    0.1196253647    1.4392681024
     H    -2.9167660995    0.0228606311    0.1152689871
     H    -1.2313406636    1.1219191523   -1.4062609617
     H    -1.6470459868    2.1622564284   -0.0449695508
     H     0.4320727492    1.6712641041    1.1040716065
     H     0.8685485300    1.9869987462   -0.5610305858
     H     0.8466106362   -2.1600898099   -0.1613970307
