16
-3.0968099289030403e+02 frame 9   xyz file generated by TeraChem
     C    -0.0277409694   -1.0959243851    0.0001638573
     C     1.3447066456   -1.3301276100    0.0001880581
     C     2.2460796968   -0.2595294779    0.0000798486
     C     1.7593362058    1.0486338754   -0.0000539899
     C     0.3837072352    1.2821081349   -0.0000785651
     C    -0.5341258270    0.2173876095    0.0000310902
     C    -1.9742857247    0.5224552519    0.0000025435
     C    -2.9876535709   -0.3539381038    0.0001269688
     H    -4.0185597933   -0.0126280976    0.0000913201
     H    -2.8349060246   -1.4300582440    0.0002675478
     H    -2.2097156755    1.5864906308   -0.0001331464
     H     0.0089091313    2.3027766354   -0.0001839470
     H     2.4489094210    1.8883060903   -0.0001400590
     H     3.3162003618   -0.4464674591    0.0000977425
     H     1.7150870620   -2.3516397405    0.0002908772
     H    -0.7113569741   -1.9395758103    0.0002468532
