19
-2.7376891665751975e+02 frame 18   xyz file generated by TeraChem
     C     1.5663447514   -1.2688473896    0.2014378831
     C     1.3061137226    0.0761768412   -0.0303175593
     C     0.0062765396    0.6432310370   -0.0182844098
     C    -1.2558540831    0.0334178685   -0.0655125515
     C    -1.5145847938   -1.4102781886   -0.3180893566
     H    -2.5316282344   -1.5546919937   -0.6907843138
     H    -1.4433273790   -1.9542034164    0.6368214697
     H    -0.8003142449   -1.8537624462   -1.0143933534
     C    -2.4525774695    0.8935862171    0.1229352904
     H    -2.2085864257    1.9054531704    0.4498576489
     H    -3.1385797123    0.4185532109    0.8368390079
     H    -3.0041928911    0.9423603436   -0.8289131069
     H    -0.0151745164    1.7304802989    0.0159859430
     C     2.4577744763    1.0310882642   -0.2077154797
     H     2.3080472373    1.6498274848   -1.0991923062
     H     2.5108754551    1.7106699434    0.6517760115
     H     3.4081655659    0.5010523701   -0.2920282829
     H     0.7968329264   -1.9887997699    0.4423415800
     H     2.5906895757   -1.6273926455    0.1892014853
