19
-2.7397214315419245e+02 frame 28   xyz file generated by TeraChem
     C     1.6094785811   -1.2475742016    0.4108411658
     C     1.3193277132    0.0222399289    0.0767993726
     C    -0.0195115461    0.6267764992    0.1940786748
     C    -1.2290119834    0.0717904546   -0.0226578443
     C    -1.4593804421   -1.3452797610   -0.4782016893
     H    -2.2967310770   -1.3832116606   -1.1861670930
     H    -1.7320939580   -1.9929041372    0.3666738640
     H    -0.5741153952   -1.7765157949   -0.9522871920
     C    -2.4838340727    0.8824948611    0.1817634444
     H    -2.2656393372    1.8925424605    0.5418299444
     H    -3.1458722177    0.3933934008    0.9102303119
     H    -3.0577289752    0.9606630698   -0.7520651935
     H    -0.0076996280    1.6845932808    0.4632007424
     C     2.4044674252    0.9694013636   -0.3846594492
     H     2.1766038480    1.3800956528   -1.3769219339
     H     2.4840105470    1.8267231510    0.2973094927
     H     3.3794608315    0.4751570712   -0.4297450329
     H     0.8642646266   -1.9267251511    0.8112866028
     H     2.6203055599   -1.6357392879    0.3106574122
