15
-1.9634671240617442e+02 frame 6   xyz file generated by TeraChem
     C     1.7610055135   -0.7940532875   -0.0000554748
     C     0.5108654717   -0.0127637821    0.0000856653
     C    -0.7428827396   -0.6840391877    0.0000114525
     C    -2.0610904899   -0.0455728474   -0.0002057133
     H    -2.6299912301   -0.4126054050    0.8697766622
     H    -2.6294015035   -0.4121706802   -0.8707725287
     H    -2.0391055828    1.0434182432    0.0000275724
     H    -0.7157267117   -1.7718298577    0.0000324521
     C     0.5793902428    1.4647766690    0.0002126660
     H     0.0462753052    1.8639455678    0.8756258828
     H     1.6076168845    1.8271861214    0.0008089790
     H     0.0474514610    1.8637954867   -0.8760187867
     H     2.3642091805   -0.4970127968    0.8721828647
     H     1.6042242956   -1.8730883876   -0.0004876078
     H     2.3645525029   -0.4963056561   -0.8718016857
