15
-1.9656355773427993e+02 frame 7   xyz file generated by TeraChem
     C     1.7585616899   -0.7473901694    0.0620767879
     C     0.4480800342    0.0009895050    0.0159759707
     C    -0.7200241795   -0.6589046268   -0.0223859122
     C    -2.1099913339   -0.0888625660   -0.0721621632
     H    -2.6981831838   -0.4155388895    0.7966436881
     H    -2.6468596047   -0.4466434971   -0.9615315703
     H    -2.1239964277    1.0039319552   -0.0919259830
     H    -0.6757300832   -1.7493414386   -0.0175880617
     C     0.5899499609    1.5025800383    0.0182159325
     H     1.1234729855    1.8362767164    0.9190727276
     H     1.1938440385    1.8327193692   -0.8382963692
     H    -0.3672251886    2.0268522558   -0.0201816298
     H     2.3322375093   -0.4801893029    0.9606856935
     H     1.6105460865   -1.8320898700    0.0596275492
     H     2.3906576965   -0.4840094795   -0.7975766603
