21
-3.5002011201669086e+02 frame 6   xyz file generated by TeraChem
     C    -1.0614019830   -0.9129862271    0.0106293455
     C     0.2257448043   -1.3992469015    0.0521229599
     C     0.5414256157   -2.8666824178    0.0991400574
     H    -0.3717363111   -3.4654975400    0.1247105582
     H     1.1428291750   -3.1009818887    0.9846749945
     H     1.1286321100   -3.1584344598   -0.7792347567
     C     1.2769637970   -0.4467269639    0.0466107758
     C     1.0437229736    0.9786350811   -0.0026283119
     C     2.2199634664    1.8967391312   -0.0033845962
     H     2.8769720269    1.6661641930   -0.8521651611
     H     1.9149038559    2.9433628940   -0.0569656064
     H     2.8182213677    1.7406502951    0.9041180378
     C    -0.2591846103    1.4258868531   -0.0453954994
     C    -1.3301858877    0.5043438879   -0.0408192517
     C    -2.7398029140    0.9593790481   -0.0944059830
     H    -3.2263118289    0.5406003063   -0.9882136801
     H    -2.8284719917    2.0465049574   -0.1062737529
     H    -3.2964274255    0.5494949267    0.7608211842
     H    -0.4749193900    2.4884046464   -0.0832120386
     H     2.3060581293   -0.7955207236    0.0812528782
     H    -1.9066696795   -1.5946274980    0.0138230464
