21
-3.5024136119079355e+02 frame 5   xyz file generated by TeraChem
     C    -1.0400569112   -0.9006534500   -0.0270383068
     C     0.2734473667   -1.3790555859   -0.0101301320
     C     0.5588136418   -2.8623395772    0.0064146419
     H    -0.3104425454   -3.4389113437   -0.3254185978
     H     0.8150164279   -3.2041490819    1.0179061131
     H     1.4062252336   -3.1126981116   -0.6413991595
     C     1.3249492969   -0.4523746818    0.0103759859
     C     1.0819706766    0.9245292661    0.0160951303
     C     2.2256236771    1.9111072950    0.0001135623
     H     3.1427537072    1.4638466552    0.3966873743
     H     2.4410171627    2.2496774433   -1.0220938427
     H     1.9923365128    2.8024696682    0.5924951020
     C    -0.2463506211    1.3716975066    0.0067125620
     C    -1.3175449628    0.4734154500   -0.0137600663
     C    -2.7441233490    0.9698596845    0.0015296985
     H    -3.3960974454    0.3273294722   -0.6000438375
     H    -2.8138671181    1.9914729637   -0.3854680811
     H    -3.1496940848    0.9765994542    1.0220055180
     H    -0.4482047904    2.4412024102    0.0113738082
     H     2.3521891658   -0.8122102134    0.0178284322
     H    -1.8650610408   -1.6101252239   -0.0504159049
