17
-2.7275759118198420e+02 frame 4   xyz file generated by TeraChem
     C    -0.0683462318   -1.1284581868    0.3263132013
     C    -1.2610206340   -0.6724268012   -0.5007187737
     C    -1.2627193655    0.6691658041   -0.4996596346
     C    -0.0696108234    1.1288876373    0.3215970549
     H    -0.1015591115    2.1576280552    0.6873632906
     C    -0.0211489237    0.0018318222    1.3788077937
     H     0.8968923393    0.0035715093    1.9789687682
     H    -0.8933688332    0.0019509662    2.0407244349
     C     1.2110988281    0.7797458043   -0.5070475166
     H     1.1760912163    1.2095833922   -1.5125931165
     H     2.1027805599    1.1728565535   -0.0065977547
     C     1.2087838505   -0.7797974115   -0.5131066649
     H     1.1641278769   -1.2040322181   -1.5203297547
     H     2.1031687015   -1.1782016465   -0.0213989645
     H    -1.8999270871    1.3261163419   -1.0843698806
     H    -1.8972269004   -1.3314634869   -1.0840140120
     H    -0.0989971620   -2.1565980353    0.6935882290
