16
-2.3444731690995815e+02 frame 11   xyz file generated by TeraChem
     C     0.7037692660    1.2674340458    0.0559034920
     C    -0.7021488831    1.2663555726   -0.0650394864
     C    -1.4790356219    0.0248845907   -0.0608955912
     C    -0.6897844244   -1.2294223558    0.3298259151
     C     0.6920432153   -1.2265043394   -0.3346989376
     C     1.4793761742    0.0249208522    0.0701084229
     H     2.4122412393    0.1666429157   -0.4942631685
     H     1.8358332078   -0.0554970535    1.1225457318
     H     1.2586140837   -2.1173879712   -0.0517346467
     H     0.5821360206   -1.2408165651   -1.4259029332
     H    -1.2567570832   -2.1178906119    0.0400934177
     H    -0.5777510848   -1.2541027707    1.4206680228
     H    -2.4011073911    0.1710480570    0.5204223265
     H    -1.8580431306   -0.0554653497   -1.1054941337
     H    -1.2172139665    2.2152324334   -0.1959782962
     H     1.2181900788    2.2182685499    0.1746457646
