16
-2.3467344335146836e+02 frame 7   xyz file generated by TeraChem
     C     0.6661186389    1.2838927653    0.0589079605
     C    -0.6662086827    1.2835943260   -0.0615830213
     C    -1.4967189680    0.0245683242   -0.1149138581
     C    -0.6952773832   -1.2109918424    0.3211384872
     C     0.6964639969   -1.2101375740   -0.3236899742
     C     1.4961979742    0.0247444446    0.1177859327
     H     2.3915526726    0.1434054918   -0.5071841747
     H     1.8705523732   -0.1189366340    1.1439071841
     H     1.2434220849   -2.1251907663   -0.0672679867
     H     0.5858619815   -1.1983380831   -1.4167543156
     H    -1.2424738211   -2.1258170900    0.0646086069
     H    -0.5829088316   -1.2014464229    1.4142240558
     H    -2.3878835516    0.1436276273    0.5160709926
     H    -1.8781684801   -0.1185869100   -1.1384424790
     H    -1.2005684493    2.2313666585   -0.1220865375
     H     1.2004001452    2.2319456848    0.1154850273
