18
-2.3564823924027235e+02 frame 27   xyz file generated by TeraChem
     C    -1.2316453838    1.3132955458   -0.0525082065
     C    -0.9124629753   -0.0556403340    0.1391824848
     C    -1.7575857608   -1.0964233249   -0.4685955193
     H    -2.5367247747   -1.3313544976    0.2826050665
     H    -1.2045019188   -2.0241716302   -0.6392807242
     H    -2.2753753018   -0.7551043562   -1.3683525447
     C     0.2575422784   -0.4330879512    0.9404999143
     C     1.5279136386   -0.5651706422    0.0004430782
     C     2.0183345672    0.7619420314   -0.5681064429
     H     2.9613621425    0.6068286596   -1.1027146607
     H     1.3029118915    1.1980219642   -1.2743282604
     H     2.1982843660    1.4918059213    0.2291453494
     H     2.2935553185   -1.0168184538    0.6383749048
     H     1.2966012042   -1.2793600108   -0.7962088795
     H     0.4825545921    0.3203184572    1.7016144129
     H     0.0958092032   -1.4112276250    1.4024352693
     H    -0.6099298408    2.0903192764    0.3814711833
     H    -2.1074765461    1.6017079699   -0.6261495253
