18
-2.3587907342064042e+02 frame 101   xyz file generated by TeraChem
     C    -1.3913196257    1.3502753537    0.0514045398
     C    -0.9651269675    0.0846067250    0.1355388357
     C    -1.6836148855   -1.0478908886   -0.5527103824
     H    -2.0278005435   -1.7871977871    0.1832139165
     H    -1.0179260930   -1.5836602184   -1.2419773477
     H    -2.5496476342   -0.6947549264   -1.1207395646
     C     0.2569216202   -0.2989228379    0.9379401599
     C     1.5005693297   -0.6270485716    0.0855275655
     C     2.0843427993    0.6027780380   -0.6105153850
     H     2.9791142687    0.3459111962   -1.1887635659
     H     1.3560396178    1.0539116441   -1.2933524076
     H     2.3657796145    1.3670112664    0.1249383702
     H     2.2593187528   -1.0669980318    0.7455043749
     H     1.2518825018   -1.3974378550   -0.6554204513
     H     0.5156140745    0.5132562106    1.6294090680
     H     0.0122877169   -1.1766609118    1.5528806979
     H    -0.8780385259    2.1583056183    0.5680356860
     H    -2.2692293208    1.6203969762   -0.5313872098
