14
-3.8252388777981463e+02 frame 6   xyz file generated by TeraChem
     C    -1.3866061338   -0.0028393947   -0.0000212790
     C    -0.6830497612   -1.2432540771   -0.0000112994
     C     0.6837404707   -1.2399906942   -0.0000032927
     C     1.3866308275    0.0028370292   -0.0000046635
     C     0.6830744476    1.2432516654   -0.0000146961
     C    -0.6837157470    1.2399884419   -0.0000227009
     H    -1.2564078327    2.1604284058   -0.0000300808
     H     1.2436371398    2.1729097062   -0.0000155479
     O     2.7052935792   -0.0667251337    0.0000035501
     H     3.1177018977    0.8209377134    0.0000026503
     H     1.2564326114   -2.1604306496    0.0000040301
     H    -1.2436125672   -2.1729120142   -0.0000104811
     O    -2.7052686498    0.0667227861   -0.0000294444
     H    -3.1176770824   -0.8209400844   -0.0000285447
