14
-3.8271645633278916e+02 frame 6   xyz file generated by TeraChem
     C    -1.4012952228    0.0031367414   -0.0000214811
     C    -0.6988693784   -1.2067948523   -0.0000118026
     C     0.6957005959   -1.2098789229   -0.0000033360
     C     1.4013200991   -0.0031393938   -0.0000044983
     C     0.6988938617    1.2067923410   -0.0000142268
     C    -0.6956757578    1.2098766141   -0.0000226724
     H    -1.2445138044    2.1466708384   -0.0000301885
     H     1.2435255350    2.1480012488   -0.0000151695
     O     2.7729809182   -0.0654135047    0.0000040322
     H     3.1298260598    0.8386306979    0.0000023264
     H     1.2445386282   -2.1466731611    0.0000041621
     H    -1.2435010693   -2.1480037554   -0.0000108651
     O    -2.7729558966    0.0654114433   -0.0000299936
     H    -3.1298013686   -0.8386326346   -0.0000280868
