17
-4.2183337760173873e+02 frame 7   xyz file generated by TeraChem
     C    -0.9615392451    0.2304987904    0.0000304814
     C    -0.4075280313   -1.0835861228    0.0000189604
     C     0.9531950122   -1.2332465556    0.0000104628
     C     1.7999138466   -0.0851393638    0.0000135100
     C     1.2490409754    1.2281275994    0.0000261668
     C    -0.1085307375    1.3802406070    0.0000343511
     H    -0.5721854657    2.3602350937    0.0000437737
     H     1.9130725885    2.0869877528    0.0000288075
     O     3.1016510200   -0.3159108648    0.0000041767
     H     3.6187577073    0.5145783654    0.0000053922
     H     1.4144345693   -2.2144624206    0.0000005402
     H    -1.0504258214   -1.9545525678    0.0000155758
     O    -2.2507031225    0.4957594717    0.0000359651
     C    -3.2299323733   -0.5720075027    0.0000370433
     H    -3.1106841679   -1.1791723063    0.8998841711
     H    -4.1934174860   -0.0673049159    0.0000562691
     H    -3.1107079686   -1.1791502600   -0.8998282471
