22
-4.2526742776019637e+02 frame 5   xyz file generated by TeraChem
     C     1.7332116104   -0.0001208002    0.0258761803
     C     3.2229955853    0.0010143096    0.0069677851
     H     3.6278404044    0.8664287094    0.5397984341
     H     3.5681488236    0.0758837894   -1.0361760966
     H     3.6337000563   -0.9228024344    0.4222089705
     C     1.0169479573   -1.2297349051    0.0194520072
     C    -0.3557791429   -1.2693765728    0.0046256259
     C    -1.1340671480   -2.5515713017   -0.0019562168
     H    -1.7834379555   -2.6263313246    0.8803577930
     H    -0.4568423621   -3.4072121010    0.0020415336
     H    -1.7711593316   -2.6245731176   -0.8932818999
     C    -1.0469920837   -0.0049105303   -0.0017865250
     C    -0.3551812797    1.2607539886    0.0045460159
     C     1.0178090429    1.2267741885    0.0196858700
     H     1.5748750269    2.1582153758    0.0279593806
     C    -1.1461857009    2.5315173269   -0.0027841234
     H    -0.4799034500    3.3960520274    0.0018439520
     H    -1.7898487496    2.5810849473   -0.8886179800
     H    -1.8042354267    2.5826467260    0.8723350150
     O    -2.3619790859    0.0693578695   -0.0115148889
     H    -2.7899960785   -0.8107669309   -0.0144830375
     H     1.5765992882   -2.1596092398    0.0275522049
