22
-4.2546510726507245e+02 frame 5   xyz file generated by TeraChem
     C     1.7462658596   -0.0046486965   -0.0003682337
     C     3.2567817394    0.0038610383    0.0002929143
     H     3.6555609970    0.5132423343    0.8866855158
     H     3.6562600874    0.5297126464   -0.8760148414
     H     3.6590063795   -1.0142184230   -0.0087875748
     C     1.0255507071   -1.2011800774   -0.0002376069
     C    -0.3747518128   -1.2278517698    0.0001090409
     C    -1.1353834224   -2.5319551686    0.0001216381
     H    -1.7806133842   -2.6297297078    0.8842941452
     H    -0.4470123001   -3.3811496868   -0.0000200502
     H    -1.7808360467   -2.6296144342   -0.8839033933
     C    -1.0601899167   -0.0041191946    0.0003127257
     C    -0.3728112735    1.2216416210   -0.0000062252
     C     1.0225051036    1.1956899467   -0.0003890305
     H     1.5588487745    2.1427176301   -0.0007480239
     C    -1.1435068809    2.5169470541    0.0000716519
     H    -0.4634517783    3.3735993850   -0.0026559683
     H    -1.7970050413    2.5932979323   -0.8776478883
     H    -1.7927300490    2.5957473112    0.8807925824
     O    -2.4332544676    0.0645094223    0.0006762635
     H    -2.8043273507   -0.8327083572    0.0005441071
     H     1.5615114763   -2.1479758058   -0.0004612483
