19
-4.6115912045642244e+02 frame 6   xyz file generated by TeraChem
     C     2.9466773421   -0.3735874436    0.0001205249
     C     1.8888190732   -1.2568498328    0.0000952045
     C     0.5492827408   -0.7873613920    0.0000323045
     C    -0.5650097675   -1.6708426131    0.0000059182
     C    -1.8527617968   -1.1928738459   -0.0000533289
     C    -2.0901753104    0.2077521129   -0.0000895632
     C    -1.0356948676    1.0976329574   -0.0000664796
     C     0.3025388499    0.6249637745   -0.0000052360
     C     1.4150272309    1.5100291644    0.0000217353
     C     2.7039449796    1.0227796561    0.0000831788
     H     3.5436902315    1.7122805744    0.0001035627
     H     1.2297361744    2.5812781542   -0.0000066069
     H    -1.2239221748    2.1691723666   -0.0000932761
     O    -3.3999332771    0.5964491379   -0.0001440697
     H    -3.4440053387    1.5682950131   -0.0001668562
     H    -2.7054332755   -1.8648965184   -0.0000728183
     H    -0.3828490843   -2.7424353962    0.0000342227
     H     2.0643367756   -2.3299994148    0.0001234712
     H     3.9681211948   -0.7429601547    0.0001699122
