17
-4.2182736907295072e+02 frame 6   xyz file generated by TeraChem
     C     1.3834277529    1.6527398368   -0.0000211903
     C     2.2898235910    0.5440530359    0.0000142347
     C     1.8294419987   -0.7512833171    0.0000404425
     C     0.4394460839   -0.9712429118    0.0000329543
     C    -0.4820786441    0.1577151271    0.0000040519
     C     0.0153698776    1.4702398656   -0.0000255104
     H    -0.6597726667    2.3164678218   -0.0000511266
     O    -1.7467897843   -0.2089146220    0.0000097022
     C    -2.7991559506    0.7899446802   -0.0000096287
     H    -2.7134646398    1.4011538814   -0.9005794630
     H    -2.7134655807    1.4011875494    0.9005373533
     H    -3.7256195501    0.2208371849    0.0000000601
     O    -0.0313262837   -2.2008495335    0.0000533436
     H    -1.0133779893   -2.1947011036    0.0000475933
     H     2.4949596975   -1.6066881003    0.0000670851
     H     3.3564759440    0.7396825716    0.0000199494
     H     1.7877062439    2.6591739335   -0.0000441514
