17
-4.2202610391254882e+02 frame 6   xyz file generated by TeraChem
     C     1.4010178983    1.6570721119   -0.0000199083
     C     2.2888736540    0.5837385591    0.0000118345
     C     1.8043618147   -0.7301206877    0.0000387257
     C     0.4335855919   -0.9631042722    0.0000332101
     C    -0.4654236357    0.1242734339    0.0000030068
     C     0.0170528950    1.4304940847   -0.0000238511
     H    -0.6704343427    2.2686778636   -0.0000481835
     O    -1.7835854790   -0.2498777243    0.0000033501
     C    -2.7691352814    0.7816624901   -0.0000111569
     H    -2.6784570743    1.4080992537   -0.8947519114
     H    -2.6784557775    1.4081255943    0.8947109775
     H    -3.7344205943    0.2745348220   -0.0000035122
     O    -0.0458782650   -2.2433893672    0.0000578307
     H    -1.0194156235   -2.1857183824    0.0000558366
     H     2.4790251396   -1.5810877363    0.0000646912
     H     3.3606602876    0.7586759536    0.0000164046
     H     1.7722288924    2.6774599033   -0.0000416441
