18
-3.1069462803818305e+02 frame 6   xyz file generated by TeraChem
     C    -1.1974477988   -1.0926688872   -0.0696824175
     C    -0.0021961479   -1.7985246695   -0.0870146314
     C     1.1912915964   -1.0911020302   -0.0411789457
     C     1.2055734805    0.3606023869    0.0235857254
     C     2.5171447395    1.0555384268    0.0684913544
     H     2.4080970236    2.1403525171    0.1088025146
     H     3.0909531905    0.7109194537    0.9408663439
     H     3.1149303985    0.7773063128   -0.8111802995
     C    -0.0051487013    1.0493374750    0.0406325882
     C    -1.2141459153    0.3590229099   -0.0057973774
     C    -2.5276866573    1.0517593270    0.0057151383
     H    -3.0984107906    0.7793826257   -0.8936779369
     H    -2.4214129073    2.1364241924    0.0564538104
     H    -3.1267016500    0.6999674212    0.8578952626
     H    -0.0063939228    2.1330662146    0.0890954174
     H     2.1433966262   -1.6127329520   -0.0524260594
     H    -0.0009911595   -2.8813621914   -0.1350054221
     H    -2.1484614043   -1.6153685328   -0.1033050652
