18
-3.1091809581327726e+02 frame 3   xyz file generated by TeraChem
     C    -1.2082085773   -1.1064488289    0.0012633619
     C     0.0074793335   -1.7980470872    0.0003649669
     C     1.2129902284   -1.1004115543   -0.0005317842
     C     1.2212649126    0.3037178336   -0.0004392877
     C     2.5286677374    1.0597974933   -0.0006279260
     H     2.3636058180    2.1414977983   -0.0004895769
     H     3.1315539015    0.8085167011    0.8805763508
     H     3.1311817750    0.8086773818   -0.8821302211
     C    -0.0030459612    0.9776640203    0.0003702984
     C    -1.2276640818    0.2915151559    0.0009111757
     C    -2.5299277556    1.0562603971   -0.0012789349
     H    -2.6247001217    1.6763782669   -0.9013614545
     H    -2.5954558840    1.7319332811    0.8601892667
     H    -3.3887563426    0.3790834809    0.0330698865
     H    -0.0070021830    2.0661419211    0.0009092901
     H     2.1562440948   -1.6417731409   -0.0008325701
     H     0.0103825589   -2.8849795878    0.0008391595
     H    -2.1463674530   -1.6558986324    0.0023683989
