19
-3.8593976133580526e+02 frame 4   xyz file generated by TeraChem
     C     1.1433138845   -0.5900781482    0.0000286201
     C     0.1578448345   -1.6179703084    0.0000294250
     C    -1.1784460269   -1.3224678479    0.0000051157
     C    -1.5727850242    0.0530571665   -0.0000227748
     C    -0.6054303633    1.0950950716   -0.0000316381
     C     0.7349988278    0.7983049145   -0.0000073812
     C     1.7650554162    1.8876617367   -0.0000118160
     H     2.4130795338    1.8105880948    0.8810215444
     H     1.2902854082    2.8707154312   -0.0001273416
     H     2.4132301170    1.8104503304   -0.8809205634
     H    -0.9581455822    2.1206514072   -0.0000602341
     O    -2.8375071505    0.4185950720   -0.0000415415
     H    -3.4426167675   -0.3517352192   -0.0000329665
     H    -1.9391010860   -2.0970570910    0.0000093932
     H     0.4846048976   -2.6521575009    0.0000548141
     C     2.5869292033   -0.9457634489    0.0000457390
     H     3.0872007705   -0.5115913246    0.8765760381
     H     2.7384093001   -2.0261825888    0.0002559210
     H     3.0871003071   -0.5119723470   -0.8767378534
