13
-3.0728120107858047e+02 frame 4   xyz file generated by TeraChem
     C    -1.8536138607   -0.0058953818    0.0000056322
     C    -1.1603163880    1.2309890683   -0.0000022045
     C     0.2105633344    1.2469271449   -0.0000215418
     C     0.9142986035   -0.0039301806   -0.0000341327
     C     0.2167255682   -1.2553946878   -0.0000248352
     C    -1.1535556283   -1.2426230018   -0.0000056785
     H    -1.7101097860   -2.1729717570    0.0000009728
     H     0.7868504694   -2.1793934915   -0.0000337965
     O     2.2225450093    0.0691558205   -0.0000541286
     H     2.6486420098   -0.8149806412   -0.0000638545
     H     0.7882744028    2.1643223503   -0.0000281674
     H    -1.7200284511    2.1593252601    0.0000072308
     H    -2.9384510832   -0.0101755024    0.0000208039
