13
-3.1984268662692000e+02 frame 4   xyz file generated by TeraChem
     C     0.1256756835    0.0020023084    0.0000456948
     C    -0.5546649081   -1.2428615811   -0.0000065192
     C    -1.9248437152   -1.2491379615   -0.0000891842
     C    -2.6291723501   -0.0057399501   -0.0001226179
     C    -1.9296112797    1.2421374841   -0.0000661706
     C    -0.5595439282    1.2425217067    0.0000172606
     H    -0.0056501146    2.1738332584    0.0000591633
     H    -2.5037992802    2.1616833717   -0.0000921711
     O    -3.9398454915    0.0615667881   -0.0002035063
     H    -4.3602063556   -0.8244566542   -0.0002429518
     H    -2.4842239063   -2.1795341456   -0.0001303276
     H     0.0027511741   -2.1721656377    0.0000185094
    Br     2.0340951719    0.0030008130    0.0001567206
