13
-3.2005961157881126e+02 frame 6   xyz file generated by TeraChem
     C     0.1290592977    0.0003476700    0.0000466797
     C    -0.5433973137   -1.2161139409   -0.0000053625
     C    -1.9391196224   -1.2132444292   -0.0000900613
     C    -2.6394691518   -0.0011938296   -0.0001222640
     C    -1.9404344175    1.2124765373   -0.0000678620
     C    -0.5467813970    1.2172219662    0.0000172762
     H    -0.0078967601    2.1582951646    0.0000583224
     H    -2.4944997554    2.1456525551   -0.0000927448
     O    -4.0013735589    0.0602922549   -0.0002050504
     H    -4.3660153413   -0.8414168682   -0.0002436545
     H    -2.4823001358   -2.1546584677   -0.0001316308
     H    -0.0046209451   -2.1572279753    0.0000180154
    Br     2.1078098014    0.0024191626    0.0001622367
