14
-3.9975210587123468e+02 frame 7   xyz file generated by TeraChem
     C     1.0432842998   -0.0003023245    0.0000193535
     C     0.3355882384    1.2173109292    0.0000167863
     C    -1.0503604659    1.2162168522    0.0000077510
     C    -1.7486345379   -0.0015633984    0.0000006591
     C    -1.0492380727   -1.2179697145    0.0000028824
     C     0.3384966372   -1.2173648741    0.0000118804
     H     0.8817025552   -2.1563969097    0.0000131720
     H    -1.5970687369   -2.1561860439   -0.0000028157
     O    -3.1025147238    0.0602470391   -0.0000081506
     H    -3.4738217115   -0.8395627513   -0.0000131547
     H    -1.6091210734    2.1460643419    0.0000057494
     H     0.8789310912    2.1562817717    0.0000219107
     C     2.4703625574    0.0001597657    0.0000279164
     N     3.6355472430    0.0002470167    0.0000387597
