22
-5.0046756098760864e+02 frame 5   xyz file generated by TeraChem
     C     3.3280141770    0.0049017069    0.0000268796
     C     2.8573254375   -1.3309680110    0.0000161600
     C     1.5044786645   -1.5975732524    0.0000116598
     C     0.5542485810   -0.5408467501    0.0000176259
     C    -0.8459187758   -0.7936998557    0.0000134913
     C    -1.7397334296    0.2589434503    0.0000195735
     O    -3.0973246628    0.1341161734    0.0000168907
     C    -3.6391748862   -1.1852855223    0.0000091539
     H    -3.3300034696   -1.7396365317    0.8940786364
     H    -4.7230821804   -1.0633752069    0.0000086217
     H    -3.3300016479   -1.7396266296   -0.8940658141
     C    -1.2684288127    1.6023397664    0.0000298011
     C     0.0776440205    1.8649942240    0.0000340703
     C     1.0319341834    0.8090292528    0.0000282673
     C     2.4300666366    1.0510876824    0.0000327650
     H     2.7800325157    2.0805310132    0.0000411484
     H     0.4320592721    2.8925110478    0.0000421475
     H    -2.0009611598    2.4036315042    0.0000342873
     H    -1.1841561903   -1.8234596630    0.0000055526
     H     1.1447339603   -2.6235084903    0.0000034323
     H     3.5704785749   -2.1507387728    0.0000114831
     H     4.3965121917    0.2005231644    0.0000304665
