20
-4.6113560833214535e+02 frame 7   xyz file generated by TeraChem
     C     0.7136208525    2.2850197681   -0.0000197647
     C     1.4293210529    1.1076340910   -0.0000420141
     C     0.7306537747   -0.1154548422   -0.0000274418
     O     1.2765065471   -1.3105246813   -0.0000431886
     C     2.7183461362   -1.4508301143   -0.0000906797
     H     3.1316294336   -0.9896731475    0.8997070517
     H     3.1315718908   -0.9896617824   -0.8999091679
     H     2.8937034578   -2.5242827693   -0.0001034527
     C    -0.7305896529   -0.1154610294    0.0000089507
     C    -1.4292310297    1.1076503528    0.0000312341
     C    -0.7139832368    2.2853085419    0.0000169224
     H    -1.2410528326    3.2331851238    0.0000327393
     H    -2.5114192023    1.1179109498    0.0000578943
     O    -1.2764443042   -1.3105512866    0.0000153106
     C    -2.7182700751   -1.4510033097    0.0000526535
     H    -2.8934926538   -2.5244772522    0.0000557013
     H    -3.1316251259   -0.9899082618   -0.8997452703
     H    -3.1315792749   -0.9899110093    0.8998731054
     H     2.5115223977    1.1180407097   -0.0000689879
     H     1.2406886449    3.2328867488   -0.0000297956
