32
-6.1862767010544337e+02 frame 62   xyz file generated by TeraChem
     C    -1.2145156525   -2.2728687770    0.0945597304
     C    -0.0003869779   -2.9571223827    0.1018873115
     C     1.2138990799   -2.2731423447    0.0948826151
     C     1.2104788885   -0.8719905335    0.0873356969
     C    -0.0000688494   -0.1638801000    0.0926709694
     C    -1.2107741288   -0.8717166639    0.0869873862
     O    -2.4402295226   -0.2787238442    0.0816196520
     C    -2.5624622966    1.1368099294   -0.1903361422
     C    -3.8810334427    1.3121428442   -0.9334287180
     H    -4.0292353040    2.3665401865   -1.1886902002
     H    -3.8815737993    0.7270794631   -1.8587949501
     H    -4.7211977498    0.9846509040   -0.3111645746
     C    -2.4968026300    1.9316886797    1.1089936665
     H    -2.5930164120    3.0020362526    0.8973308163
     H    -3.3149430603    1.6327301710    1.7732170741
     H    -1.5478529421    1.7678462397    1.6284095436
     H    -1.7446486169    1.4336616088   -0.8567584110
     H     0.0000412868    0.9149010459    0.1185072009
     O     2.4400715633   -0.2792720388    0.0823381663
     C     2.5627089537    1.1361926150   -0.1898166442
     C     3.8814585190    1.3110889134   -0.9326912576
     H     4.0299815506    2.3654173066   -1.1880521448
     H     4.7214257983    0.9834509067   -0.3102384954
     H     3.8820115209    0.7259176620   -1.8579898325
     C     2.4970077998    1.9312828811    1.1093787353
     H     2.5935020351    3.0015772381    0.8975739304
     H     3.3149639936    1.6322380567    1.7737899584
     H     1.5479327506    1.7677320347    1.6286562380
     H     1.7450881808    1.4331401824   -0.8564337623
     H     2.1634787674   -2.7978131350    0.0836361195
     H    -0.0005091254   -4.0436747450    0.0977396799
     H    -2.1642102779   -2.7973270568    0.0830665421
