20
-4.6112751847216202e+02 frame 8   xyz file generated by TeraChem
     C    -1.2050855365    1.2160721795   -0.0001754360
     C    -1.2006609204   -0.2331330730   -0.0002671761
     O    -2.3111405307   -0.9503077745   -0.0002723000
     C    -3.6156858899   -0.3242942680   -0.0002145382
     H    -4.3200727602   -1.1536648790   -0.0002760410
     H    -3.7413868521    0.2814471739    0.8999304010
     H    -3.7414012892    0.2815908967   -0.9002603835
     C    -0.0000386881   -0.9375652629   -0.0003515191
     C     1.2007320282   -0.2333612995   -0.0003546035
     C     1.2052956756    1.2158144583   -0.0002639928
     C     0.0001871598    1.9063854286   -0.0001764677
     H     0.0003042653    2.9901641693   -0.0001070804
     H     2.1435180206    1.7558423910   -0.0002616355
     O     2.3111670924   -0.9505420156   -0.0004330269
     C     3.6155230116   -0.3241921211   -0.0005006984
     H     4.3201562763   -1.1533572555   -0.0006641525
     H     3.7410548785    0.2815848049    0.8996462292
     H     3.7408752483    0.2817804657   -0.9005402664
     H    -0.0001306981   -2.0206278705   -0.0004207768
     H    -2.1431633914    1.7563254519   -0.0001074353
