20
-4.6133487195570166e+02 frame 7   xyz file generated by TeraChem
     C    -1.2212011790    1.1960000879   -0.0001838416
     C    -1.2116824799   -0.2071165327   -0.0002827552
     O    -2.3332785125   -0.9856407279   -0.0003085920
     C    -3.6009058519   -0.3323490858   -0.0002062960
     H    -4.3463787499   -1.1287508222   -0.0002538739
     H    -3.7280456424    0.2893267411    0.8939432137
     H    -3.7281071045    0.2894894733   -0.8942337556
     C    -0.0000051014   -0.9034489982   -0.0003663450
     C     1.2116588121   -0.2070870534   -0.0003550073
     C     1.2212382954    1.1960394084   -0.0002596296
     C     0.0000093443    1.8717009646   -0.0001757635
     H    -0.0000042846    2.9582350381   -0.0001018816
     H     2.1496669529    1.7530108338   -0.0002519003
     O     2.3332489198   -0.9856178894   -0.0004435429
     C     3.6009056436   -0.3323800321   -0.0004955070
     H     4.3463346509   -1.1288221501   -0.0006066376
     H     3.7281817950    0.2893075877    0.8936258147
     H     3.7280454097    0.2894280607   -0.8945527407
     H    -0.0000011709   -1.9883301244   -0.0004437818
     H    -2.1496326467    1.7529668207   -0.0001180766
