14
-2.7056801233677174e+02 frame 4   xyz file generated by TeraChem
     C    -0.6245213978    1.1797213252    0.2863838279
     C     0.7733087822    1.1523223981   -0.3223897323
     C     1.5171761636   -0.1101327727    0.1378324407
     C     0.5879855157   -1.2954767574    0.0677596918
     C    -0.7345768407   -1.1534574715   -0.0790917490
     O    -1.4077542889    0.0380439927   -0.1126020947
     H    -1.4195028430   -1.9880182383   -0.1993111138
     H     0.9956131913   -2.3018221851    0.0962654828
     H     1.9021668752    0.0266969130    1.1590199552
     H     2.3962257408   -0.2818955602   -0.4965060987
     H     1.3115584224    2.0623656396   -0.0361421676
     H     0.6824677031    1.1532272402   -1.4157370419
     H    -1.1967034001    2.0514273448   -0.0400244593
     H    -0.5622121238    1.1867728316    1.3829518588
