18
-3.1069425995304397e+02 frame 12   xyz file generated by TeraChem
     C    -1.8154395119   -0.7383010707    0.0410866548
     C    -0.6222131387   -1.4330565149    0.0722504229
     C     0.5979268340   -0.7435332675    0.0318427393
     C     1.8883105046   -1.4767100084    0.0483938461
     H     2.5158872654   -1.1369493221    0.8832842511
     H     1.7353326383   -2.5539290108    0.1259053889
     H     2.4592359216   -1.2591651873   -0.8653203572
     C     0.5904469273    0.7276281633   -0.0357003635
     C     1.8733435259    1.4735803416   -0.0615396248
     H     2.4975814415    1.1403907478   -0.9016343904
     H     1.7088252062    2.5491751908   -0.1375227822
     H     2.4535850159    1.2614481026    0.8475316080
     C    -0.6366836479    1.4050279425   -0.0693175765
     C    -1.8227550373    0.6984407214   -0.0315625055
     H    -2.7745385234    1.2187255165   -0.0550604055
     H    -0.6428539905    2.4879725106   -0.1225160308
     H    -0.6173296896   -2.5160266285    0.1247358190
     H    -2.7618517413   -1.2680782269    0.0689033062
