18
-3.1091868297431444e+02 frame 5   xyz file generated by TeraChem
     C    -1.9166636281   -0.6971635047    0.0000031484
     C    -0.7012533823   -1.3860855021   -0.0000017379
     C     0.5219189350   -0.7060565091   -0.0000070769
     C     1.8221487507   -1.4720064724   -0.0000169384
     H     2.4309996345   -1.2273764881    0.8796058006
     H     1.6438855816   -2.5512886361   -0.0000147760
     H     2.4309850160   -1.2273768800   -0.8796499978
     C     0.5218747446    0.7060953699   -0.0000068936
     C     1.8221566950    1.4719812382   -0.0000260419
     H     2.4309344476    1.2274041597   -0.8797153979
     H     1.6439462359    2.5512688990    0.0000767093
     H     2.4310561145    1.2272517197    0.8795349415
     C    -0.7013487680    1.3860441919   -0.0000006297
     C    -1.9168213715    0.6972397544    0.0000036300
     H    -2.8536713860    1.2478915240    0.0000082313
     H    -0.6983561641    2.4735943033    0.0000010820
     H    -0.6982655995   -2.4736420372   -0.0000015616
     H    -2.8534735560   -1.2478737305    0.0000069086
