16
-3.4659177897751010e+02 frame 7   xyz file generated by TeraChem
     C     0.0201641776    1.1344868575   -0.0000478115
     C    -1.3323557743    1.3672627004   -0.0000564947
     C    -2.2524401783    0.2848854536   -0.0000294664
     C    -1.8017805892   -1.0547252193    0.0000042043
     C    -0.4548244892   -1.3176513913    0.0000126372
     C     0.4762241105   -0.2216122213   -0.0000112152
     O     1.7361238339   -0.5721108874    0.0000003016
     C     2.8004717115    0.4191725596   -0.0000013936
     H     2.7219147758    1.0295527397   -0.9012748388
     H     2.7218579648    1.0296223257    0.9012192382
     H     3.7183866687   -0.1632470337    0.0000497372
     H    -0.0541713626   -2.3250868263    0.0000388129
     H    -2.5197966799   -1.8669068362    0.0000234910
     H    -3.3170683084    0.4937342959   -0.0000354929
     H    -1.7074406059    2.3846291928   -0.0000851118
     H     0.7283354450    1.9531433903   -0.0000711975
