23
-5.3835358587084318e+02 frame 10   xyz file generated by TeraChem
     C     1.4189340277   -0.9200121113    0.5233369464
     C     2.7098160523   -1.4205604236    0.5191203198
     C     3.7809624393   -0.6321645126    0.0654618420
     C     3.5618229190    0.6843265710   -0.3755785124
     C     2.2817149417    1.2069966925   -0.3813766227
     C     1.2098354528    0.3886108247    0.0365401094
     O     0.0000538282    0.9962478818   -0.0070917830
     C    -1.2103442414    0.3892585484   -0.0495837661
     C    -2.2794104328    1.2062777856    0.3784848752
     C    -3.5591831019    0.6828168249    0.3828769019
     C    -3.7803939667   -0.6337583507   -0.0569041672
     C    -2.7129961407   -1.4199621166   -0.5237742551
     C    -1.4220981578   -0.9192411135   -0.5353819921
     H    -0.6077627090   -1.4960455334   -0.9548838898
     H    -2.9012759590   -2.4190581999   -0.9012933624
     H    -4.7862797938   -1.0404101054   -0.0551127579
     H    -4.3896572885    1.2876779307    0.7302555601
     H    -2.0646299330    2.2123984623    0.7207917473
     H     2.0691428766    2.2131588472   -0.7248760081
     H     4.3949526027    1.2906570478   -0.7137355979
     H     4.7877177037   -1.0364618413    0.0771781987
     H     2.8961452435   -2.4176337975    0.9031063222
     H     0.6029990373   -1.4953634110    0.9418937920
