28
-4.4593539698248833e+02 frame 12   xyz file generated by TeraChem
     C     1.1119830293   -1.2999384210   -0.0126224831
     C     0.3877822640    0.0241328515   -0.0168361305
     C     1.0969392871    1.2350720760   -0.0319631699
     C     2.5827747467    1.3056245437   -0.0375041660
     C     3.2625675274   -0.0295019043   -0.3632581164
     C     2.5812757845   -1.1613652120    0.4081718573
     H     3.0877213664   -2.1158822480    0.2362894421
     H     2.6332225045   -0.9554415389    1.4850092529
     H     4.3253691369    0.0295840655   -0.1090938224
     H     3.1944247325   -0.2251962294   -1.4407360672
     H     2.8971506346    2.1047953437   -0.7213369113
     H     2.8933813046    1.6506974158    0.9645711038
     H     0.5510464599    2.1718472569   -0.0287186030
     N    -0.9463307860    0.0240161097   -0.0281621491
     C    -1.8058501741    1.2330161398    0.0086229220
     C    -3.2058223782    0.6778907658    0.2790278686
     C    -3.1750538750   -0.6996049077   -0.3943926038
     C    -1.7639579576   -1.2078393924   -0.0943570030
     H    -1.3595501099   -1.8792646307   -0.8545915110
     H    -1.7062476760   -1.7071828184    0.8801848712
     H    -3.9367896742   -1.3840427978   -0.0159356607
     H    -3.3082887633   -0.5981348204   -1.4768968604
     H    -3.9787788955    1.3352237695   -0.1248212877
     H    -3.3648320304    0.5745874032    1.3570170860
     H    -1.4493812099    1.9196365079    0.7772846862
     H    -1.7401843461    1.7240875978   -0.9687228445
     H     0.5897112172   -1.9983507280    0.6485338660
     H     1.0492140808   -1.7229463975   -1.0253999662
