28
-4.4609236189098669e+02 frame 72   xyz file generated by TeraChem
     C     1.1149359387   -1.2752090770    0.0189780310
     C     0.4058552552    0.0661996918    0.0019872192
     C     1.0972395479    1.2335978675   -0.0156572247
     C     2.6050878096    1.3169670685   -0.0199174158
     C     3.2603652948   -0.0180372624   -0.3939263224
     C     2.5978772682   -1.1544551514    0.3882375357
     H     3.1010434540   -2.1107183818    0.2021028491
     H     2.6893507121   -0.9497731856    1.4641340488
     H     4.3380764158    0.0157412958   -0.1922964596
     H     3.1371220745   -0.2018371462   -1.4703242614
     H     2.9343727186    2.1010201407   -0.7170957849
     H     2.9811187706    1.6320955428    0.9691528897
     H     0.5582486903    2.1768970695   -0.0246150720
     N    -0.9751477587    0.0096615845   -0.0018868306
     C    -1.8005196975    1.2104939459    0.0302284813
     C    -3.2231201133    0.6773336673    0.2418847738
     C    -3.1760700157   -0.7083525176   -0.4164711721
     C    -1.7717136588   -1.2172611881   -0.0666344802
     H    -1.3875297758   -1.9102315860   -0.8229062777
     H    -1.7773876407   -1.7499444288    0.8976911749
     H    -3.9634557840   -1.3838491900   -0.0704659636
     H    -3.2683891188   -0.6074657323   -1.5047862976
     H    -3.9832782269    1.3340515177   -0.1909101798
     H    -3.4293558921    0.5783154100    1.3137608433
     H    -1.4806293129    1.8826460756    0.8375459035
     H    -1.7096093456    1.7743518470   -0.9133330700
     H     0.6126999319   -1.9484335783    0.7240906280
     H     1.0163086586   -1.7482844990   -0.9692039658
