16
-3.4299617040488920e+02 frame 7   xyz file generated by TeraChem
     C    -0.7000386574    1.3906490627    0.0151879362
     C    -1.9145848913    0.6974278838    0.0136771117
     C    -1.9140627842   -0.6969519568   -0.0135413415
     C    -0.6999506633   -1.3909633285   -0.0152315871
     C     0.5199697579   -0.7082135916   -0.0015649554
     N     1.7588697535   -1.3776669537   -0.0488860954
     H     2.4469429196   -0.9617507454    0.5753581788
     H     1.6737722116   -2.3669900028    0.1657834004
     C     0.5200181127    0.7081088059    0.0014909726
     N     1.7589584247    1.3775120712    0.0488536946
     H     2.4470389412    0.9616940056   -0.5754490887
     H     1.6739004207    2.3668805823   -0.1656223938
     H    -0.6893901924   -2.4787702006   -0.0199158590
     H    -2.8495020751   -1.2492837377   -0.0211807828
     H    -2.8500609338    1.2497389406    0.0211993285
     H    -0.6892605443    2.4784389649    0.0197704809
