29
-5.2130030597081316e+02 frame 113   xyz file generated by TeraChem
     C    -1.4811333365   -1.2606075227    0.0282605580
     C    -0.6513449738    0.0015105449    0.2020263473
     C    -1.2125843842    1.2253478574    0.0694400732
     C    -2.6901323706    1.4620285041   -0.1316621742
     C    -3.4272090775    0.2103911332   -0.6178858380
     C    -2.9831840720   -1.0049138584    0.1980885875
     H    -3.2014894648   -0.8260573661    1.2602867820
     H    -3.5419813560   -1.9016753362   -0.0952764592
     H    -3.1964584637    0.0362498622   -1.6777387076
     H    -4.5119765732    0.3530691122   -0.5409184551
     H    -3.1477521295    1.8031129540    0.8136058540
     H    -2.8428423489    2.2876052988   -0.8404421888
     H    -0.6038225353    2.1177704418    0.1808133587
     N     0.6725057949   -0.2112604859    0.6031477835
     C     1.5574970898    0.8900833417    0.9572266375
     H     0.9793954285    1.7667997163    1.2502196029
     C     2.5445526990    1.2069948458   -0.1585166302
     H     3.2553351761    1.9775299424    0.1544952743
     H     2.0118330771    1.5521259282   -1.0582860434
     O     3.3145566077    0.0407869038   -0.4608029346
     C     2.4677069745   -1.0364573266   -0.8588857238
     H     1.9379327786   -0.7656790304   -1.7872541778
     C     1.4480711242   -1.3882220641    0.2203569165
     H     1.9878091725   -1.7560354017    1.1052830460
     H     0.7978690138   -2.1879642676   -0.1342759186
     H     3.1248789247   -1.8869146375   -1.0649780560
     H     2.1441044649    0.5761899885    1.8343581903
     H    -1.2959214756   -1.6910450146   -0.9667380420
     H    -1.1542141645   -2.0144154634    0.7537056376
