20
-3.6607860514358833e+02 frame 26   xyz file generated by TeraChem
     C    -0.4922287678    1.2415085376    0.0058922696
     C    -1.8713610350    1.2258621391    0.0348123636
     C    -2.5717684483    0.0069416343    0.0243293690
     C    -1.8694970392   -1.2102659647   -0.0161917957
     C    -0.4903313532   -1.2226161930   -0.0454523116
     C     0.2342110895    0.0103239643   -0.0348764885
     N     1.5910753595    0.0119282970   -0.0616500822
     C     2.3454682393    1.2704969642   -0.0504836994
     H     3.4077898597    1.0420788085   -0.0625756081
     H     2.0904284983    1.8635883601   -0.9331292088
     H     2.1058150398    1.8396552101    0.8517304925
     C     2.3472546984   -1.2450557395   -0.1015059150
     H     3.4091155719   -1.0146785972   -0.1174375112
     H     2.1171273650   -1.8433322021    0.7842597001
     H     2.0839290190   -1.8097058955   -1.0001512578
     H     0.0359548476   -2.1669545221   -0.0756781475
     H    -2.4123861572   -2.1492430541   -0.0243121660
     H    -3.6565099269    0.0056168480    0.0478066404
     H    -2.4156927935    2.1635217661    0.0658893067
     H     0.0325759331    2.1871296390    0.0140140498
