17
-3.2677718234110694e+02 frame 6   xyz file generated by TeraChem
     C    -0.6788470430    1.2390382240    0.0506932909
     C     0.6924659748    1.2231381913    0.0332553766
     C     1.4150167985    0.0004192522    0.0212410016
     C     2.9082222257    0.0001186791   -0.0362930839
     H     3.3266108805    0.9001771102    0.4228789438
     H     3.2352048032   -0.0138466102   -1.0866993602
     H     3.3263865744   -0.8884419677    0.4452823823
     C     0.6926280352   -1.2225801011    0.0347709644
     C    -0.6785713373   -1.2392891756    0.0522716358
     C    -1.3987040228   -0.0001869295    0.0590034719
     N    -2.7298083003   -0.0003297194    0.0745023689
     H    -3.2598588521   -0.8666875519    0.0797522405
     H    -3.2598081895    0.8660617521    0.0786803694
     H    -1.2354132834   -2.1708093507    0.0630788417
     H     1.2429090799   -2.1580031484    0.0319042559
     H     1.2423569032    2.1587750828    0.0293063893
     H    -1.2360368470    2.1703577627    0.0604180111
