17
-3.2695712014025770e+02 frame 7   xyz file generated by TeraChem
     C    -0.6983422490    1.2054663334   -0.0140766975
     C     0.6952235640    1.1967428268   -0.0024702434
     C     1.4248261304    0.0002698925    0.0016242502
     C     2.9351003127   -0.0003937341   -0.0082301844
     H     3.3368147055    0.8936828655    0.4809750194
     H     3.3347698637   -0.0160020901   -1.0316221566
     H     3.3365621919   -0.8796771696    0.5074649790
     C     0.6957486066   -1.1966494510   -0.0017236092
     C    -0.6976834325   -1.2050909532   -0.0133269739
     C    -1.4208796335    0.0000709117   -0.0199765733
     N    -2.8205567825   -0.0003972393   -0.0898663941
     H    -3.2490435566   -0.8320738652    0.3031326457
     H    -3.2495463984    0.8314894029    0.3021381521
     H    -1.2369989273   -2.1495517600   -0.0105222712
     H     1.2285961747   -2.1451242690    0.0119366971
     H     1.2279333403    2.1452784770    0.0104990771
     H    -1.2377705099    2.1498713219   -0.0119086170
