22
-2.9226993190379920e+02 frame 20   xyz file generated by TeraChem
     N    -0.1413323606    0.0626449272   -0.1834171476
     C    -1.3434769981   -0.0708987455    0.6220979186
     C    -2.5797005989    0.3482299491   -0.2009223254
     H    -3.4622091496    0.2130390108    0.4303279541
     H    -2.6780160782   -0.2797519942   -1.0905322539
     H    -2.5179568234    1.3968323906   -0.5024490434
     H    -1.4322874024   -1.1107774455    0.9386579112
     H    -1.2281738817    0.5751707736    1.4973425921
     C     0.4415508801   -1.1128400769   -0.8027203059
     C     1.1656828997   -2.0211479673    0.2058559933
     H     0.4822725464   -2.3888292235    0.9747390842
     H     1.5584684600   -2.8767308066   -0.3507096639
     H     1.9969036533   -1.4955951304    0.6805433817
     H    -0.3840202987   -1.6649089912   -1.2681477357
     H     1.1272634649   -0.7767306268   -1.5822905202
     C     0.4499211825    1.3744891404   -0.3836114066
     C     1.8448611349    1.4693106195    0.2594035669
     H     2.5508453508    0.7818211563   -0.2125492773
     H     1.7903120974    1.2559119557    1.3301938895
     H     2.2067147587    2.4914882980    0.1186979600
     H     0.5269036111    1.5321083834   -1.4663817124
     H    -0.2261267481    2.1169030034    0.0414534404
