22
-2.9244854310155972e+02 frame 72   xyz file generated by TeraChem
     N     0.1530462423    0.0925452382    0.3155141504
     C    -1.2263738498   -0.0578825839    0.7913360924
     C    -2.3448228945    0.0656152292   -0.2529415762
     H    -3.3204922768   -0.0355964041    0.2366725144
     H    -2.2734633851   -0.7142122705   -1.0185069337
     H    -2.3194587854    1.0394078940   -0.7543467847
     H    -1.3113442430   -1.0283730764    1.2928652585
     H    -1.3802734123    0.6998294472    1.5704320656
     C     0.5874829650   -0.9635127703   -0.6018577815
     C     0.7125326547   -2.3246581808    0.0849740235
     H    -0.2571413069   -2.7118141686    0.4152797140
     H     1.1443079155   -3.0591740184   -0.6036176060
     H     1.3632732410   -2.2466402102    0.9633420047
     H    -0.0756573408   -1.0496520008   -1.4820258603
     H     1.5715511585   -0.6792103034   -0.9870226478
     C     0.4360410561    1.4403076261   -0.1868915789
     C     1.9021671996    1.8358118365   -0.0009818927
     H     2.5779213681    1.1716556069   -0.5505769359
     H     2.1752946550    1.7934762593    1.0593189797
     H     2.0719649092    2.8562809412   -0.3635713349
     H     0.1513905302    1.5539392105   -1.2487692183
     H    -0.1895467005    2.1415952984    0.3769576474
