14
-3.0842442075116861e+02 frame 6   xyz file generated by TeraChem
     C     1.5331962702   -1.2097953624   -0.0000137999
     C     2.2331034345    0.0000367805   -0.0000331530
     C     1.5331767626    1.2098575789   -0.0000187476
     C     0.1401752592    1.2148682445    0.0000150023
     C    -0.5713544907    0.0000140991    0.0000358740
     C     0.1401948773   -1.2148286336    0.0000199806
     H    -0.4070223584   -2.1522015554    0.0000345225
     C    -2.0014047099    0.0000019803    0.0000707926
     C    -3.2126834401   -0.0000151876    0.0001286575
     H    -4.2812029495   -0.0000225945    0.0001457375
     H    -0.4070570454    2.1522323648    0.0000257774
     H     2.0735134217    2.1519884738   -0.0000342461
     H     3.3191505972    0.0000455181   -0.0000600875
     H     2.0735481713   -2.1519175066   -0.0000255105
