25
-5.1872060764628702e+02 frame 105   xyz file generated by TeraChem
     C    -1.3875667779    1.2323607666   -0.0681576791
     C    -2.7556606359    1.3196494633   -0.2391283095
     C    -3.5589232421    0.1694817323   -0.1701514850
     C    -2.9721256103   -1.0861598116    0.0524863935
     C    -1.6027110022   -1.2040640657    0.1924988222
     C    -0.7814188405   -0.0391118592    0.1493477310
     N     0.5632178498   -0.1485705324    0.3623764498
     C     1.3307136542   -1.3663352717    0.0897740716
     H     1.7329866399   -1.7361436807    1.0389027015
     H     0.7006251062   -2.1242072331   -0.3692623284
     C     2.4954338997   -1.0071104100   -0.8546575348
     H     2.0898164673   -0.6922795972   -1.8259496516
     H     3.1162139287   -1.8952641193   -0.9882402637
     O     3.3134602499    0.0045212465   -0.2984839901
     C     2.5760672974    1.1981848150   -0.0858896381
     H     3.2517773291    1.9256158241    0.3671384567
     H     2.2001596370    1.5915993346   -1.0409839044
     C     1.3988431147    0.9430823454    0.8610217042
     H     0.8113103236    1.8433379289    1.0200113823
     H     1.7906010901    0.6074623430    1.8287614999
     H    -1.1669377280   -2.1695755565    0.4152004622
     H    -3.5947054003   -1.9707755244    0.1332330813
     H    -4.6348127532    0.2522776876   -0.2835408971
     H    -3.2079584066    2.2863574291   -0.4327711155
     H    -0.7787784904    2.1229125455   -0.1553480586
