25
-5.1889616914835403e+02 frame 131   xyz file generated by TeraChem
     C    -1.3099897328    1.1568488277   -0.1783389037
     C    -2.6842193424    1.2907784668   -0.3842173766
     C    -3.5420267444    0.1971054529   -0.2561840300
     C    -2.9985896201   -1.0465579900    0.0841969000
     C    -1.6323658751   -1.1908152408    0.3022155434
     C    -0.7576684298   -0.0871896561    0.1872330252
     N     0.5849206095   -0.2384275890    0.5312858286
     C     1.3809314951   -1.3865646389    0.1075702263
     H     1.8982052445   -1.8080036560    0.9834585058
     H     0.7372449390   -2.1622649742   -0.3097898109
     C     2.4326186355   -0.9503326886   -0.9101207543
     H     1.9362722277   -0.6116220452   -1.8329894371
     H     3.1037741760   -1.7809570218   -1.1489079215
     O     3.2532930106    0.0956646360   -0.3887528669
     C     2.4710689364    1.2448934019   -0.0514258750
     H     3.1655871593    1.9893821537    0.3485820315
     H     1.9963799881    1.6493697871   -0.9596422850
     C     1.4127104208    0.8736058299    0.9778189704
     H     0.7893634500    1.7304817704    1.2397375130
     H     1.9382637086    0.5559826384    1.8923518157
     H    -1.2386663683   -2.1499073506    0.6246258112
     H    -3.6479504907   -1.9090951847    0.2121908891
     H    -4.6111064658    0.3097821360   -0.4092541108
     H    -3.0824273216    2.2644172195   -0.6584671902
     H    -0.6659959105    2.0206715157   -0.3049885983
