14
-2.1241390031433548e+02 frame 4   xyz file generated by TeraChem
     C    -1.1800687993   -0.4557212491    0.1151868182
     N     0.0673248077   -1.1674090968    0.0004271150
     C     1.2245086045   -0.3170826893   -0.1198938927
     C     0.6819509240    1.0820600428    0.2067920852
     H     0.7756423112    1.2679533941    1.2811553713
     H     1.2276190001    1.8585771040   -0.3308906418
     C    -0.8015084172    0.9972228462   -0.2063495343
     H    -0.9159309682    1.1747211876   -1.2800338882
     H    -1.4330163736    1.7039559567    0.3337337940
     H     1.5747344990   -0.4028306922   -1.1640431005
     H     2.0291091874   -0.6977462869    0.5192358790
     H     0.1267424442   -2.1874316894    0.0072826954
     H    -1.5193591640   -0.5801912450    1.1596128369
     H    -1.9355716888   -0.9274868437   -0.5228493611
