14
-2.1260533065245764e+02 frame 342   xyz file generated by TeraChem
     C     0.3916169516   -1.1582824807   -0.2677946857
     N     1.2570772818   -0.0357062860    0.1437127522
     H     1.3674482376   -0.1119615127    1.1563198509
     C     0.4400488426    1.1743122169   -0.1105984697
     C    -1.0640975907    0.7598951639   -0.0494780301
     C    -1.0310254866   -0.7694859095    0.1741550490
     H    -1.1565484150   -1.0008765666    1.2392437325
     H    -1.8151691309   -1.2999025732   -0.3760485535
     H    -1.6018077280    1.2775876777    0.7507063871
     H    -1.5653144495    1.0063530196   -0.9915645404
     H     0.6827526718    1.5570922009   -1.1090763536
     H     0.6998168786    1.9536202664    0.6117444288
     H     0.4409065334   -1.2600170989   -1.3596778537
     H     0.7483379033   -2.0927377179    0.1771090864
