24
-5.1852946888423241e+02 frame 10   xyz file generated by TeraChem
     C    -2.3499188081   -1.2396110766    0.3387450599
     C    -3.6326735918   -0.7214337870    0.3186205138
     C    -3.8473879533    0.6106522109   -0.0654368930
     C    -2.7651515591    1.4183883330   -0.4436757811
     C    -1.4725314243    0.9206080005   -0.4275026168
     C    -1.2518307657   -0.4132477264   -0.0079569669
     N    -0.0004159364   -0.9887688395    0.0312486529
     C     1.2535333357   -0.4152659498    0.0514487728
     C     1.4839124951    0.9161386858    0.4715930477
     C     2.7744054400    1.4196100130    0.4424486057
     C     3.8449550868    0.6183052309    0.0200716373
     C     3.6224520921   -0.7145889630   -0.3554218552
     C     2.3414343123   -1.2375810207   -0.3329485146
     H     2.1517484975   -2.2634087066   -0.6341467967
     H     4.4529030641   -1.3393055534   -0.6665128124
     H     4.8510726412    1.0244542314    0.0060847959
     H     2.9561138835    2.4358466484    0.7758062821
     H     0.6743633049    1.5158140894    0.8661606087
     H    -0.0017156759   -2.0077384482    0.0319323808
     H    -0.6528779027    1.5259210145   -0.7908067127
     H    -2.9386605612    2.4354599069   -0.7787749108
     H    -4.8552553377    1.0119901047   -0.0885460980
     H    -4.4712241691   -1.3504654293    0.5975566566
     H    -2.1672458680   -2.2666817691    0.6400564441
