24
-5.1871005115756407e+02 frame 35   xyz file generated by TeraChem
     C    -2.3773702483   -1.2218980993    0.3659180216
     C    -3.6676730620   -0.7065931881    0.2920483274
     C    -3.8854606483    0.6136193722   -0.1150382050
     C    -2.7854677214    1.3996434688   -0.4622091352
     C    -1.4870068798    0.8917941232   -0.4048131466
     C    -1.2632638201   -0.4275795586    0.0291924238
     N     0.0001311348   -1.0159428072    0.1041250085
     C     1.2649352646   -0.4261546750    0.0703272439
     C     1.5155026286    0.8897354598    0.5001228549
     C     2.8101308011    1.4074723353    0.4539033210
     C     3.8821411030    0.6310586525    0.0096892461
     C     3.6411483986   -0.6882049276   -0.3857534161
     C     2.3510969337   -1.2104450799   -0.3641190557
     H     2.1679349426   -2.2319689262   -0.6883775415
     H     4.4615411128   -1.3148401305   -0.7252304239
     H     4.8867663164    1.0419121512   -0.0191823646
     H     2.9791075885    2.4274958669    0.7888546534
     H     0.7101534864    1.4966934714    0.8948221692
     H     0.0000425211   -2.0274243316    0.0802814928
     H    -0.6573763219    1.5121998404   -0.7188607125
     H    -2.9325572256    2.4228723704   -0.7977279274
     H    -4.8916767353    1.0188317616   -0.1616997205
     H    -4.5080722522   -1.3413449871    0.5601931305
     H    -2.2147027174   -2.2458409625    0.6935772559
