17
-2.5193336472662023e+02 frame 260   xyz file generated by TeraChem
     C    -1.4433457369    0.0003109869    0.1656234415
     C    -0.6588089764   -1.2651134583   -0.2129499125
     C     0.7628105181   -1.2113599798    0.3649334235
     N     1.5100968312    0.0012573621   -0.0050771032
     H     1.6206838484    0.0045577608   -1.0201303737
     C     0.7626387672    1.2121637745    0.3726180754
     C    -0.6564029001    1.2639491461   -0.2119385262
     H    -1.1787635520    2.1657453368    0.1333639741
     H    -0.5815137851    1.3338186771   -1.3069237005
     H     1.3430618263    2.0891645763    0.0630926400
     H     0.7042736983    1.2334019697    1.4705342342
     H     1.3441640313   -2.0878351198    0.0562202696
     H     0.7049576081   -1.2342114936    1.4634035733
     H    -1.1780029423   -2.1639427400    0.1452240777
     H    -0.5927387213   -1.3438335652   -1.3074146634
     H    -2.4280957663    0.0011023544   -0.3180040491
     H    -1.6240036486    0.0008336118    1.2507812194
