14
-2.8744863483790914e+02 frame 6   xyz file generated by TeraChem
     C    -0.2234264054   -1.2442061399   -0.0408128603
     C     1.1504328168   -1.2284078698    0.0020449047
     C     1.8471164666   -0.0000296099    0.0243911078
     C     1.1506356525    1.2284611401    0.0019809914
     C    -0.2232180218    1.2442008397   -0.0409523044
     C    -0.9375632206    0.0000605414   -0.0619622548
     N    -2.2673687837    0.0001962270   -0.0993542709
     H    -2.7990321413    0.8664623237   -0.1128374972
     H    -2.7978306234   -0.8667946983   -0.1128236326
     H    -0.7851050660    2.1724765373   -0.0579231200
     H     1.7035736265    2.1612081851    0.0194357730
     H     2.9314262901   -0.0001076392    0.0595658064
     H     1.7033183549   -2.1611866774    0.0193213236
     H    -0.7853874449   -2.1724350597   -0.0579513666
