14
-2.8763473216317652e+02 frame 5   xyz file generated by TeraChem
     C    -0.2317576689   -1.2094047957    0.0106857399
     C     1.1621275687   -1.2037511343    0.0008996708
     C     1.8731511845   -0.0000208720   -0.0041288929
     C     1.1621460426    1.2037204244    0.0009084269
     C    -0.2317390151    1.2093955587    0.0107155192
     C    -0.9510279090    0.0000007766    0.0163797599
     N    -2.3472221084    0.0000110344    0.0890448664
     H    -2.7829156279    0.8337407393   -0.2905156069
     H    -2.7829261392   -0.8337246842   -0.2904900058
     H    -0.7764085986    2.1506480714    0.0135174950
     H     1.6958118006    2.1508143469   -0.0069404022
     H     2.9589953024   -0.0000292296   -0.0145252375
     H     1.6957787259   -2.1508534222   -0.0069282839
     H    -0.7764420576   -2.1506487136    0.0134995509
