22
-2.9245998348197639e+02 frame 190   xyz file generated by TeraChem
     C    -1.8092179963   -0.7750949418   -0.7436746859
     C    -1.1930831874    0.4423706695   -0.0322117150
     N     0.0571570070    0.1394099037    0.6764707374
     H    -0.1391815475   -0.6301203468    1.3186070744
     C     1.2063965199   -0.2491722116   -0.1614974801
     C     1.7493325338    0.9612143533   -0.9269067209
     H     2.0030907209    1.7662737777   -0.2272180628
     H     1.0257148774    1.3509166391   -1.6502503673
     H     2.6531043906    0.6837132381   -1.4816556942
     C     2.2859900307   -0.8355989462    0.7481439237
     H     1.9084713177   -1.7095911178    1.2932100907
     H     3.1574532298   -1.1495416522    0.1641982158
     H     2.6092402892   -0.0888853976    1.4831592693
     H     0.9316395478   -1.0229283269   -0.8993303856
     C    -2.2095474074    1.0866896378    0.9047924320
     H    -1.7879774627    1.9748228650    1.3864694346
     H    -2.5214907027    0.3823398935    1.6863411423
     H    -3.1034720462    1.3837960235    0.3442823422
     H    -0.9416092758    1.1849716743   -0.8006237400
     H    -1.1076361045   -1.2257897047   -1.4542806833
     H    -2.0949376944   -1.5439954640   -0.0146973753
     H    -2.7065692398   -0.4904798661   -1.3068293519
