27
-4.6195907556882469e+02 frame 95   xyz file generated by TeraChem
     C     2.6396751386   -0.7614259701    0.4975783781
     N     1.2894002311   -1.2785090624    0.5404476075
     C     0.2898585611   -0.6196332576   -0.0625069009
     N     0.3126292117    0.7105308480   -0.1423190690
     C    -0.9025728067    1.4964801515   -0.4482300681
     C    -2.0648342277    1.2255499527    0.5198895752
     C    -2.8982183654   -0.0141801374    0.1791413539
     C    -2.1480791267   -1.3422509192    0.2957291605
     C    -0.8741973402   -1.4242356153   -0.5665867045
     H    -1.0926783340   -1.0915565125   -1.5895448012
     H    -0.5313952823   -2.4596963788   -0.6224414023
     H    -1.8804901444   -1.5406594528    1.3407276935
     H    -2.8054762233   -2.1568938580   -0.0255043368
     H    -3.7735318498   -0.0457289417    0.8380456757
     H    -3.2792840429    0.0941374430   -0.8454714718
     H    -1.6687979508    1.1650884664    1.5413612305
     H    -2.7123137277    2.1081692308    0.4826085645
     H    -1.1899887763    1.2832589038   -1.4840861316
     H    -0.6005295456    2.5412471752   -0.3896624717
     C     1.5540352789    1.4413607964    0.1792528408
     C     2.7445101399    0.5840950266   -0.2161199575
     H     3.6735776854    1.0898196670    0.0575474166
     H     2.7382842216    0.4407270782   -1.3020245134
     H     1.5259502874    2.3780708541   -0.3794149326
     H     1.5495577595    1.6785130169    1.2500720641
     H     2.9934656388   -0.7202388364    1.5366556732
     H     3.2499207897   -1.5343456683    0.0064064274
