17
-7.4480197409945788e+02 frame 7   xyz file generated by TeraChem
     C     1.3565048125    0.0051968411    0.0000001519
     C     0.7505820489    1.2945741311   -0.0000000949
     C    -0.6129521606    1.4025383178   -0.0000002585
     C    -1.4263395815    0.2296119117   -0.0000001606
     C    -0.8284875440   -1.0610943375    0.0000000106
     C     0.5394574962   -1.1645095704    0.0000001501
     H     1.0070738845   -2.1437007603    0.0000002672
     H    -1.4387842275   -1.9550068979    0.0000000473
     O    -2.7255215123    0.4506090955   -0.0000002550
     C    -3.6634334554   -0.6519982719   -0.0000001417
     H    -4.6455128625   -0.1840821589   -0.0000002132
     H    -3.5236338852   -1.2555421311   -0.8995978264
     H    -3.5236339221   -1.2555419241    0.8995976875
     H    -1.1053331104    2.3685165204   -0.0000004454
     H     1.3693783400    2.1850893483   -0.0000001831
     S     3.0664208910   -0.2257491011    0.0000004676
     H     3.4293197883    1.0735439872    0.0000007966
