17
-7.4499686401087160e+02 frame 6   xyz file generated by TeraChem
     C     1.3560660100   -0.0030478826    0.0000133224
     C     0.7591967502    1.2659067989    0.0000142519
     C    -0.6252442924    1.3888715161    0.0000068414
     C    -1.4422511084    0.2490318035    0.0000029902
     C    -0.8515914677   -1.0198516412    0.0000043107
     C     0.5405830319   -1.1374593941    0.0000075712
     H     0.9847873115   -2.1290449392    0.0000044103
     H    -1.4553195582   -1.9193082873   -0.0000000067
     O    -2.7874260865    0.4801768479   -0.0000023211
     C    -3.6575355491   -0.6496806894   -0.0000067584
     H    -4.6708085195   -0.2459250982   -0.0000100635
     H    -3.5071380838   -1.2662851234   -0.8942168186
     H    -3.5071445899   -1.2662870998    0.8942029949
     H    -1.0926126438    2.3688453929    0.0000055039
     H     1.3730003420    2.1617816757    0.0000208697
     S     3.1335638363   -0.2342374490    0.0000310043
     H     3.4749796174    1.0689685693   -0.0000781025
