14
-1.0286600807792224e+03 frame 7   xyz file generated by TeraChem
     C     1.4043136608    0.0124199258   -0.0001152348
     C     0.6870025822    1.2146410272   -0.0000924398
     C    -0.7061283999    1.2015663282   -0.0000239891
     C    -1.4043625679   -0.0122833391    0.0000446226
     S    -3.1923378579    0.0430321972    0.0002049771
     H    -3.4041351727   -1.2875772415   -0.0003499228
     C    -0.6870452889   -1.2144871480    0.0000336289
     C     0.7060794898   -1.2014301900   -0.0000580149
     H     1.2459342920   -2.1441463223   -0.0000757303
     H    -1.2104279918   -2.1657804988    0.0000952153
     H    -1.2459897427    2.1442772765   -0.0000317979
     H     1.2103588892    2.1659506544   -0.0001423064
     S     3.1922833126   -0.0434256581   -0.0002132163
     H     3.4043848952    1.2871272884   -0.0003038915
