15
-2.7136409610674013e+02 frame 6   xyz file generated by TeraChem
     C     1.8425222873   -0.0000599574    0.0121186306
     C     1.1425814047   -1.2396231817    0.0023555223
     C    -0.2271380090   -1.2417747066   -0.0147972508
     C    -0.9526459557    0.0001347306   -0.0261937641
     C    -2.4281457363    0.0001855171   -0.0134727810
     H    -2.8427795799    0.9048529740   -0.4663949296
     H    -2.8425470818   -0.9018817339   -0.4719429538
     H    -2.7545695380   -0.0035153835    1.0437769505
     C    -0.2266834995    1.2415998468   -0.0147095680
     C     1.1430335432    1.2398844993    0.0025487364
     H     1.7029586663    2.1682490128    0.0082590078
     H    -0.7877478526    2.1700076612   -0.0229838166
     H    -0.7883173763   -2.1701309680   -0.0230192092
     H     1.7024045936   -2.1680359486    0.0080140822
     H     2.9277473342   -0.0002104621    0.0286517433
