15
-2.7159481789358102e+02 frame 5   xyz file generated by TeraChem
     C     1.8721559350   -0.0001515769    0.0079052047
     C     1.1674188380   -1.2064675985    0.0023173278
     C    -0.2289065059   -1.2032212346   -0.0072972584
     C    -0.9474072326    0.0006565113   -0.0086707793
     C    -2.4571375255   -0.0003785532    0.0107881886
     H    -2.8627746382    0.8887834130   -0.4829581301
     H    -2.8617372940   -0.8873321633   -0.4878191790
     H    -2.8390581976   -0.0035010458    1.0404526774
     C    -0.2284083585    1.2042429224   -0.0070852522
     C     1.1679482716    1.2064567212    0.0025484442
     H     1.7055867751    2.1510254624    0.0012423922
     H    -0.7695570094    2.1476459220   -0.0158503595
     H    -0.7705942562   -2.1463167923   -0.0162225605
     H     1.7045125918   -2.1513493058    0.0008466649
     H     2.9586318063   -0.0004107819    0.0120130191
