32
-1.4886085831158534e+03 frame 52   xyz file generated by TeraChem
     C     1.6485878167    1.4413499690   -0.0366566698
     C     1.5406897299    0.8548825650   -1.3115495155
     C     2.1885212257   -0.3395343251   -1.5671473041
     C     2.9561686552   -0.9593945809   -0.5430665406
     C     3.0634350192   -0.3666509822    0.7292152249
     C     2.4051344199    0.8212466060    0.9773189985
     H     2.4630805037    1.2678407195    1.9659360275
     H     3.6403695215   -0.8280667270    1.5209061091
     O     3.5511834949   -2.1160433685   -0.8581432778
     C     4.3489626143   -2.7778437445    0.1374311616
     H     3.7363609279   -3.0542965595    1.0013687898
     H     5.1779972523   -2.1402070269    0.4572818628
     H     4.7346714018   -3.6746272511   -0.3419645577
     H     2.1420234093   -0.8107298861   -2.5400221685
     H     0.9653734938    1.3446504742   -2.0870899675
     S     0.9566968033    2.9844706176    0.4358387123
     S    -0.9850551886    3.0523940001   -0.3528774955
     C    -1.6520710222    1.4623811260   -0.0349017052
     C    -1.3722012873    0.7617094634    1.1585589888
     C    -1.9829107127   -0.4480974837    1.3695292451
     C    -2.8969954206   -0.9945428048    0.4451418841
     C    -3.1856799032   -0.2952988336   -0.7388900990
     C    -2.5488478036    0.9162176818   -0.9701767172
     H    -2.7485538426    1.4515313053   -1.8902124385
     H    -3.8824451415   -0.6874048285   -1.4664541497
     O    -3.4187534142   -2.1655553431    0.8220971465
     C    -4.4046213768   -2.8221557161    0.0169537899
     H    -3.9953937319   -3.0756410541   -0.9630388319
     H    -4.6575450735   -3.7300382402    0.5630080425
     H    -5.2912034333   -2.1913479046   -0.0872671837
     H    -1.8001722389   -1.0008387907    2.2865816708
     H    -0.6980047985    1.1689164231    1.9042766679
