19
-7.8392788053459128e+02 frame 6   xyz file generated by TeraChem
     C     1.7108607023   -1.5687762480   -0.0000001462
     C     3.0424809735   -1.1822993798   -0.0000003040
     C     3.3748739383    0.1802850592   -0.0000003509
     C     2.3754342591    1.1654219612   -0.0000002793
     C     1.0252310633    0.8045803984   -0.0000001461
     C    -0.0229637136    1.7788919692   -0.0000000648
     C    -1.3450803012    1.4108624751    0.0000000548
     C    -1.6898944353    0.0350060498    0.0000000937
     C    -0.6713509875   -0.9562927634    0.0000000937
     C     0.6773146012   -0.5870038942   -0.0000000610
     H    -0.9365594328   -2.0088000383    0.0000002200
     S    -3.3712375151   -0.3871667299   -0.0000002591
     H    -3.2248517256   -1.7276575024    0.0000008308
     H    -2.1269675046    2.1624309218    0.0000002045
     H     0.2470085339    2.8304935487   -0.0000000454
     H     2.6470619886    2.2164041135   -0.0000003148
     H     4.4175752762    0.4806701315   -0.0000004507
     H     3.8264793148   -1.9316031759   -0.0000003764
     H     1.4361657645   -2.6190517964   -0.0000000990
