19
-7.8412973387441957e+02 frame 7   xyz file generated by TeraChem
     C     1.7173239878   -1.5566274236   -0.0000001311
     C     3.0400774686   -1.1717124362   -0.0000003111
     C     3.3882960885    0.2023546694   -0.0000003877
     C     2.4042344284    1.1667953032   -0.0000003019
     C     1.0322436645    0.8023193236   -0.0000001343
     C    -0.0101151709    1.7679957629   -0.0000000610
     C    -1.3309264305    1.3889952764    0.0000000955
     C    -1.6779373131    0.0092066260    0.0000002085
     C    -0.6917685998   -0.9555749654    0.0000001417
     C     0.6791393390   -0.5857915401   -0.0000000468
     H    -0.9462050411   -2.0118619106    0.0000002504
     S    -3.4220566590   -0.3807130409    0.0000004036
     H    -3.2977906143   -1.7225415774    0.0000001906
     H    -2.1150560068    2.1406062367    0.0000001482
     H     0.2521557860    2.8227416220   -0.0000001367
     H     2.6623402007    2.2227315491   -0.0000003602
     H     4.4355078701    0.4905099532   -0.0000005171
     H     3.8243542604   -1.9233951912   -0.0000003802
     H     1.4477635413   -2.6096431369   -0.0000000704
