19
-7.0890464053271455e+02 frame 7   xyz file generated by TeraChem
     C     0.3579295436    0.0698020819   -0.0001458232
     C    -0.1701038732   -1.2777850265   -0.0000213873
     C     0.7410442255   -2.4706314235   -0.0001066772
     H     1.3896447215   -2.4763997570    0.8841838499
     H     1.3889461547   -2.4767580318   -0.8849130078
     H     0.1548297332   -3.3914866416    0.0003051963
     C    -1.5426291426   -1.4308980210    0.0001393511
     C    -2.3899220078   -0.3106126789    0.0001848069
     C    -1.8706017443    0.9963646116    0.0000795232
     C    -0.5081232586    1.2277759619   -0.0000826718
     C     0.0206864986    2.6322488916   -0.0001940597
     H     0.6346666315    2.8307052157   -0.8872087934
     H     0.6350583093    2.8307148063    0.8865451615
     H    -0.8085159814    3.3420748174   -0.0000149364
     H    -2.5515823110    1.8405176799    0.0001307910
     H    -3.4656557814   -0.4549837522    0.0003107666
     H    -1.9689788219   -2.4281808295    0.0002355491
     S     2.0706793106    0.1927590447   -0.0003987348
     H     2.1765083939    1.5354941509   -0.0004951041
