16
-6.6958173543998339e+02 frame 7   xyz file generated by TeraChem
     C     0.1184672421    0.1738398009   -0.0000272386
     C    -0.7929643980    1.2740576727   -0.0000193875
     C    -2.1516639824    1.0309381566    0.0000017616
     C    -2.6250329790   -0.2925471520    0.0000117599
     C    -1.7283336549   -1.3807212421   -0.0000014154
     C    -0.3658304044   -1.1623933520   -0.0000207940
     H     0.3205909560   -1.9994813162   -0.0000338676
     H    -2.1118498285   -2.3952075351    0.0000028950
     H    -3.6936630008   -0.4813758820    0.0000287479
     H    -2.8513094011    1.8594088213    0.0000109788
     H    -0.4086609995    2.2890742240   -0.0000272135
     S     1.7809960471    0.6006511312   -0.0000512039
     C     2.7024692870   -0.9611138954   -0.0000124454
     H     3.7546258211   -0.6719699321    0.0000209385
     H     2.4666745263   -1.5312235636   -0.9013868420
     H     2.4666151692   -1.5312147362    0.9013511263
