16
-6.6978678933592516e+02 frame 6   xyz file generated by TeraChem
     C     0.1196324755    0.2043263665   -0.0000431160
     C    -0.7994536964    1.2669165077   -0.0000222344
     C    -2.1685553875    1.0096398900    0.0000065710
     C    -2.6423504721   -0.3060903129    0.0000170568
     C    -1.7290299090   -1.3601754906   -0.0000043853
     C    -0.3528651790   -1.1139763020   -0.0000359513
     H     0.3342291572   -1.9519889637   -0.0000578660
     H    -2.0816852184   -2.3879534315    0.0000019247
     H    -3.7099860352   -0.5047268938    0.0000414083
     H    -2.8671125683    1.8418464142    0.0000228333
     H    -0.4405186477    2.2928427371   -0.0000277880
     S     1.8509490156    0.6414068457   -0.0000849513
     C     2.6981870071   -0.9729316085   -0.0000054763
     H     3.7664853875   -0.7447839882    0.0000368770
     H     2.4516413433   -1.5468427281   -0.8962490368
     H     2.4515631274   -1.5467878419    0.8962519343
