30
-1.3381834517861876e+03 frame 59   xyz file generated by TeraChem
     C    -1.6607503491   -1.0522197800    0.1023626519
     C    -1.3749671028   -0.2867162932   -1.0442700933
     C    -2.0092451599    0.9302541711   -1.2029756031
     C    -2.9410624390    1.4227337176   -0.2794868061
     C    -3.6393765991    2.7254355331   -0.5296577677
     H    -4.5476026659    2.5570802799   -1.1240242847
     H    -3.9474964742    3.2045857356    0.4025136813
     H    -3.0102044981    3.4170327059   -1.0970389672
     C    -3.2150355471    0.6406089914    0.8552937474
     C    -2.5803223315   -0.5789243888    1.0520896220
     H    -2.7881826463   -1.1645412133    1.9400182079
     H    -3.9269762516    0.9950805838    1.5921962860
     H    -1.7969629434    1.5158480840   -2.0939847708
     H    -0.6830516559   -0.6437203059   -1.7990260459
     S    -0.9946038205   -2.6588136701    0.3526172425
     S     0.9514934562   -2.5969945852   -0.3780309563
     C     1.6206763302   -1.0147256105   -0.0119687161
     C     1.5007185390   -0.3119098755    1.1954615430
     C     2.1623052389    0.9007015786    1.3325308783
     C     2.9467210779    1.4326302246    0.2772468153
     C     3.6848773790    2.7261218255    0.4406312782
     H     3.8735337632    3.2064919314   -0.5231845599
     H     4.6600947134    2.5442386486    0.9106774204
     H     3.1420032226    3.4211809121    1.0863454649
     C     3.0516516940    0.7117176597   -0.9187208044
     C     2.3977871228   -0.4974164954   -1.0707875336
     H     2.4678825221   -1.0348645450   -2.0121354608
     H     3.6431851803    1.1080185137   -1.7389898016
     H     2.0877584615    1.4440370217    2.2675204112
     H     0.9152387835   -0.7197278553    2.0105957212
