30
-1.3383915702958843e+03 frame 77   xyz file generated by TeraChem
     C    -1.7521502564   -0.9958842562   -0.1187007505
     C    -2.7768500275   -1.0459891658   -1.0709200965
     C    -3.4623495592    0.1159251862   -1.4164990270
     C    -3.1285935997    1.3528964592   -0.8472015763
     C    -3.8815207848    2.6049294327   -1.2198632116
     H    -4.7797964905    2.7176430132   -0.5987218408
     H    -3.2660745400    3.4975499275   -1.0710182420
     H    -4.2092519431    2.5762849194   -2.2639491411
     C    -2.0966465599    1.3891330212    0.0995327125
     C    -1.4228031152    0.2293254354    0.4781116414
     H    -0.6321222390    0.2744937922    1.2188059808
     H    -1.8221142879    2.3370160263    0.5553555794
     H    -4.2586667231    0.0667059319   -2.1549398802
     H    -3.0323489613   -1.9913954281   -1.5393630565
     S    -0.8780989211   -2.4824287359    0.3363500858
     S     0.9812921156   -2.3421190934   -0.6803205483
     C     1.7664112480   -0.9006096576    0.0329207578
     C     2.5378755604   -0.9359188754    1.1990855799
     C     3.1986804261    0.2193013044    1.6121557240
     C     3.1203540656    1.4136984627    0.8713695472
     C     3.8770451507    2.6356654729    1.3301665719
     H     3.4112645675    3.5549970024    0.9624971856
     H     4.9106961472    2.6175008976    0.9610928053
     H     3.9246059803    2.6827661091    2.4232023857
     C     2.3228063578    1.4397267588   -0.2739382715
     C     1.6504769536    0.2945553513   -0.6907954590
     H     1.0393466694    0.3180030618   -1.5865946559
     H     2.2278006797    2.3598587671   -0.8442123753
     H     3.7972914766    0.1945416503    2.5193198613
     H     2.6235276103   -1.8549492713    1.7708905141
