13
-6.3025250240004300e+02 frame 5   xyz file generated by TeraChem
     C     0.4715807225   -0.0159754280   -0.0000364185
     C    -0.2281189445    1.2311257733   -0.0000176462
     C    -1.6052836064    1.2287222687    0.0000221120
     C    -2.3062891703    0.0050491772    0.0000441338
     C    -1.6192518415   -1.2287003514    0.0000273329
     C    -0.2425505165   -1.2516804023   -0.0000117244
     H     0.3013931203   -2.1898714761   -0.0000240562
     H    -2.1781483856   -2.1579518701    0.0000455719
     H    -3.3913439366    0.0107750148    0.0000752715
     H    -2.1513111087    2.1654295222    0.0000365607
     H     0.3306247007    2.1612401008   -0.0000348696
     S     2.1841584732    0.0593520423   -0.0000890123
     H     2.4399447935   -1.2668931714   -0.0000924557
