24
-1.2595321415685580e+03 frame 87   xyz file generated by TeraChem
     C     1.6197839388   -0.5915922386    0.0853509645
     C     1.3190950164    0.1746613371    1.2197205812
     C     1.9359384051    1.4130541275    1.3604061321
     C     2.8319418013    1.8750065050    0.3779022613
     C     3.1298114837    1.0985874998   -0.7426019937
     C     2.5222144440   -0.1408257289   -0.8981968788
     H     2.7261633210   -0.7462426257   -1.7763888423
     H     3.8230569813    1.4583330740   -1.4963294883
     H     3.3044008598    2.8444972200    0.4971599557
     H     1.7300542216    2.0182883067    2.2352746036
     H     0.6374287379   -0.1994704670    1.9737268337
     S     1.0023053279   -2.2149011284   -0.2139662968
     S    -1.0198231874   -2.2312858525    0.2433931613
     C    -1.6272871233   -0.5996401919   -0.0228780487
     C    -1.2027627009    0.2055330671   -1.0960266866
     C    -1.8031804473    1.4422171954   -1.2718299510
     C    -2.8221212752    1.8816292700   -0.4228525102
     C    -3.2475446637    1.0690482737    0.6304717304
     C    -2.6477780634   -0.1691378034    0.8401120822
     H    -2.9620162850   -0.7981101754    1.6650528512
     H    -4.0402154687    1.4005854954    1.2910078735
     H    -3.2834798557    2.8493538591   -0.5906240555
     H    -1.4897246509    2.0662320057   -2.1042350825
     H    -0.4360083173   -0.1331452245   -1.7833753964
