24
-1.2597414661314347e+03 frame 121   xyz file generated by TeraChem
     C     1.9212327749   -0.3585899495   -0.1882537384
     C     1.4966864646    0.7439363452    0.5599462758
     C     2.4191492757    1.7353141613    0.9042021172
     C     3.7565638334    1.6283493705    0.5170651700
     C     4.1795205988    0.5084224420   -0.2013582846
     C     3.2668141056   -0.4849082936   -0.5564587772
     H     3.6004500093   -1.3576697142   -1.1103602652
     H     5.2220341378    0.4020718151   -0.4864626992
     H     4.4650750114    2.4076861777    0.7820136063
     H     2.0816543689    2.6026750945    1.4648574766
     H     0.4607932670    0.8489490211    0.8594695056
     S     0.8230262860   -1.6359858343   -0.8407430937
     S    -0.7856495485   -1.7340760217    0.4589779857
     C    -1.9165947163   -0.3964152665    0.0631823234
     C    -1.5791456827    0.6768169637   -0.7615137885
     C    -2.5082168469    1.6940748810   -0.9767516882
     C    -3.7687295665    1.6498369897   -0.3836947990
     C    -4.0970851137    0.5760936531    0.4472388363
     C    -3.1784178040   -0.4502925451    0.6708428786
     H    -3.4456707544   -1.2845242366    1.3139686619
     H    -5.0761774329    0.5287814839    0.9150288172
     H    -4.4872016797    2.4413955337   -0.5731780860
     H    -2.2409227477    2.5171323506   -1.6337971428
     H    -0.6089357400    0.7136013784   -1.2439474918
