28
-1.6685325971557008e+03 frame 60   xyz file generated by TeraChem
     C    -1.6719162592   -1.4697538151    0.1480773652
     C    -2.5670891814   -1.0679468753    1.1454544368
     C    -3.2593016611    0.1176131339    1.0081238415
     C    -3.0495851520    0.8780802278   -0.1320720881
     C    -2.1757586032    0.4889448788   -1.1479681239
     C    -1.4746120698   -0.6978831002   -1.0078255463
     H    -0.8056296095   -1.0279770687   -1.7912242520
     H    -2.0699866476    1.0992088773   -2.0344763428
     N    -3.7952142391    2.1430700584   -0.2467987072
     O    -4.0471395645    2.5731859140   -1.3622879014
     O    -4.1117504552    2.6835680081    0.8117096363
     H    -3.9416138347    0.4608898492    1.7712322184
     H    -2.7073936048   -1.6701103385    2.0327064386
     S    -0.9320725826   -3.0474034448    0.4264543176
     S     0.9360280374   -3.0140870424   -0.4539586443
     C     1.6565885991   -1.4383087233   -0.1168118114
     C     2.5253853610   -1.0525029663   -1.1476959087
     C     3.2326629260    0.1265621059   -1.0335394724
     C     3.0586972806    0.8827773083    0.1081297472
     C     2.2086769938    0.5013386564    1.1530966265
     C     1.4886499242   -0.6775016004    1.0456714980
     H     0.8390146380   -1.0037287256    1.8464194345
     H     2.1372884396    1.1157981737    2.0396469258
     N     3.8112463452    2.1434531574    0.2219505882
     O     4.0597226001    2.5120052564    1.3687742826
     O     4.1272323012    2.7296691577   -0.7999841812
     H     3.8964403400    0.4648098918   -1.8155386268
     H     2.6315583788   -1.6586036546   -2.0372969510
