28
-1.6687646145179406e+03 frame 75   xyz file generated by TeraChem
     C    -1.8935041159   -1.1117543288    0.3353951511
     C    -2.9685746488   -1.0348282354    1.2313848608
     C    -3.9884723093   -0.1203359329    1.0128356860
     C    -3.9263843069    0.7112445063   -0.1081978903
     C    -2.8634467632    0.6473852144   -1.0008783392
     C    -1.8404924409   -0.2642050127   -0.7726502895
     H    -1.0163760292   -0.3319129882   -1.4725407170
     H    -2.8388489855    1.2994089860   -1.8644852621
     N    -5.0053624653    1.6699422596   -0.3187572508
     O    -4.9367636320    2.4491078771   -1.2588835047
     O    -5.9328195306    1.6772656567    0.4984235557
     H    -4.8244058490   -0.0447722758    1.6962296087
     H    -3.0150708273   -1.6870803290    2.0986167082
     S    -0.6260653113   -2.3099535459    0.7143907795
     S     0.6803371559   -2.3364542834   -0.8877389106
     C     1.9054338153   -1.0976215880   -0.4457417173
     C     3.0921183420   -1.1160467396   -1.2006049264
     C     4.1136299710   -0.2094813739   -0.9261645249
     C     3.9279355537    0.7105215171    0.1160665105
     C     2.7427185333    0.7539278229    0.8394849739
     C     1.7254277496   -0.1461869535    0.5599560842
     H     0.8148675502   -0.1152928146    1.1424541808
     H     2.6334748172    1.4924095576    1.6206341521
     N     4.9775136751    1.6567699230    0.5213191978
     O     4.7691181721    2.4193035427    1.4709254876
     O     6.0294031877    1.6339491980   -0.1271774731
     H     5.0372407191   -0.2398063698   -1.4926252914
     H     3.2274966729   -1.8603359901   -1.9817020397
