16
-7.7813154804349722e+02 frame 7   xyz file generated by TeraChem
     C    -1.8098714251   -1.4328272490    0.0000137905
     C    -0.6239380394   -0.7039743050    0.0000018136
     C    -0.6238056634    0.7041434336   -0.0000067109
     C    -1.8097787020    1.4329036594   -0.0000035964
     C    -3.0007729276    0.7024411076    0.0000082152
     C    -3.0010800214   -0.7027342846    0.0000168346
     H    -3.9472283415   -1.2349070992    0.0000261536
     H    -3.9468855181    1.2346594712    0.0000110609
     H    -1.8043669933    2.5176536800   -0.0000101015
     N     0.7128584767    1.0883156173   -0.0000169140
     C     1.5376820860    0.0000243091   -0.0000155612
     S     3.2301351995   -0.0000860632   -0.0000252825
     N     0.7127120544   -1.0881575929   -0.0000043032
     H     1.0589229296   -2.0387066679    0.0000000410
     H     1.0591559714    2.0388339868   -0.0000260980
     H    -1.8042862859   -2.5175732032    0.0000205583
