20
-4.7838732059995743e+02 frame 7   xyz file generated by TeraChem
     C     0.6123157026   -0.8306191994    0.0000001869
     C     1.4541804769    0.2791305387    0.0000001222
     C     0.9325892783    1.5972047023    0.0000000236
     C    -0.4334751041    1.8269153435   -0.0000000503
     C    -1.3203894674    0.7333095539   -0.0000000193
     C    -0.7681202112   -0.5787935702    0.0000001234
     N    -1.8218822016   -1.4644660602    0.0000001785
     C    -3.0155284149   -0.7622958273    0.0000000219
     C    -2.7519963392    0.5846655646   -0.0000000987
     H    -3.4868281911    1.3783987407   -0.0000002643
     H    -3.9569688218   -1.2933255195    0.0000000353
     H    -1.7394700505   -2.4711124444    0.0000003736
     H    -0.8132742028    2.8452222521   -0.0000001885
     H     1.6377430557    2.4227633789   -0.0000000418
     O     2.8227996130    0.2029038409    0.0000000819
     C     3.4086169048   -1.0942864858   -0.0000003466
     H     4.4883698302   -0.9368796400   -0.0000003500
     H     3.1212995151   -1.6624060395   -0.8935877440
     H     3.1212996036   -1.6624066533    0.8935866987
     H     0.9894714244   -1.8460185759    0.0000002576
