22
-3.8812286296468830e+02 frame 6   xyz file generated by TeraChem
     C     0.8792432071   -1.2200907021   -0.0000348969
     C     1.2363588609    0.1705966383   -0.0000314901
     C     0.1945349940    1.1422165445   -0.0000086976
     C    -1.1360737651    0.7860068950    0.0000074682
     C    -1.4738779053   -0.6126818421   -0.0000019153
     C    -0.4422848793   -1.5851752701   -0.0000202534
     H    -0.7162738154   -2.6348547968   -0.0000189908
     C    -2.9001456547   -1.0400759322   -0.0000265149
     H    -2.9979704686   -2.1269224996    0.0002691677
     H    -3.4210363491   -0.6331802945   -0.8772780144
     H    -3.4212820771   -0.6326378055    0.8768164348
     C    -2.2154319625    1.8283155638    0.0000484445
     H    -2.8602610242    1.7256247441    0.8810787684
     H    -2.8605057797    1.7254673956   -0.8807819863
     H    -1.7849891246    2.8319729420   -0.0000961623
     H     0.4690493257    2.1925945393   -0.0000051959
     C     2.5885544814    0.6224540240   -0.0000499479
     C     3.6990132280   -0.1806062104   -0.0000817455
     H     3.6462059361   -1.2641211672   -0.0000968956
     H     4.6887897726    0.2637500708   -0.0000947884
     H     2.7363173597    1.6996305532   -0.0000403223
     H     1.6492914400   -1.9817589902   -0.0000462661
