22
-3.8832072775325520e+02 frame 8   xyz file generated by TeraChem
     C     0.8730023305   -1.2049398192   -0.0000362039
     C     1.2396533047    0.1511002693   -0.0000324712
     C     0.2094090154    1.1066610953   -0.0000171434
     C    -1.1426575402    0.7538922715   -0.0000054209
     C    -1.4944389178   -0.6119371300   -0.0000065740
     C    -0.4701887824   -1.5689849415   -0.0000230488
     H    -0.7364273041   -2.6233639148   -0.0000214518
     C    -2.9407366265   -1.0369842030   -0.0000014027
     H    -3.0311946833   -2.1273076798    0.0001546744
     H    -3.4727481169   -0.6523354506   -0.8797777662
     H    -3.4728245215   -0.6520695651    0.8796095809
     C    -2.2068111314    1.8233333985    0.0000071064
     H    -2.8581413160    1.7423861895    0.8797712858
     H    -2.8582466250    1.7423043004   -0.8796707853
     H    -1.7602363985    2.8219147612   -0.0000644066
     H     0.4745571368    2.1619985979   -0.0000155741
     C     2.6368783730    0.6113182242   -0.0000438528
     C     3.7414730276   -0.1481451960   -0.0000738486
     H     3.7076769975   -1.2346295093   -0.0000937759
     H     4.7281491307    0.3056262233   -0.0000795462
     H     2.7558501214    1.6949760809   -0.0000269240
     H     1.6352283260   -1.9782896026   -0.0000462510
