10
-6.2423948492706631e+02 frame 8   xyz file generated by TeraChem
     C    -1.6115340399   -0.0860903282   -0.0118144477
     C    -1.1266507880    1.2434950207   -0.0094584933
     N     0.1925914722    1.3927055521    0.0265365364
     C     0.7955647959    0.1857821912    0.0561795363
     N     2.0984946602    0.0449611864    0.0995504298
     H     2.5529879982   -0.8640738274    0.1202137505
     H     2.6881404108    0.8752194843    0.1124636903
     S    -0.3257275730   -1.2083571503    0.0340740224
     H    -1.7772377897    2.1104590556   -0.0356122926
     H    -2.6447168466   -0.4081229844   -0.0390048320
