10
-6.2443498496504014e+02 frame 8   xyz file generated by TeraChem
     C    -1.6414529921   -0.0564011808   -0.0078550523
     C    -1.1657127677    1.2159986807   -0.0025818690
     N     0.2108414977    1.3712204538   -0.0044487183
     C     0.8040713301    0.2052870946   -0.0142562384
     N     2.1616451166    0.0268305513   -0.0921337391
     H     2.5293680652   -0.8327351198    0.2985085822
     H     2.6946668446    0.8443518819    0.1861591780
     S    -0.2984839818   -1.1838337275   -0.0237688378
     H    -1.7897272679    2.1030457988    0.0094830189
     H    -2.6633035447   -0.4077862330    0.0040215758
