20
-4.7820627886690818e+02 frame 7   xyz file generated by TeraChem
     C    -1.0549647603   -1.8768502083    0.0000024045
     C     0.3192057777   -2.2454678613    0.0000248401
     C     1.3408532207   -1.3108396154    0.0000499252
     C     1.0397829257    0.0750478594    0.0000539706
     C    -0.3291298391    0.4770069827    0.0000318632
     C    -1.3385746675   -0.5289635016    0.0000066616
     N    -2.5609505741    0.1372374799   -0.0000089305
     C    -2.3570559604    1.4668332882    0.0000061897
     C    -0.9701300123    1.7276848950    0.0000320848
     H    -0.5136565650    2.7066217872    0.0000492159
     H    -3.1855152126    2.1607903093   -0.0000017022
     H    -3.4695320622   -0.3134408338   -0.0000272472
     O     1.9378798302    1.0467467707    0.0000761878
     C     3.3457491823    0.7221376561    0.0001139677
     H     3.5976039000    0.1543849520   -0.8987156702
     H     3.5975504382    0.1543642107    0.8989452448
     H     3.8574664156    1.6827222314    0.0001403771
     H     2.3707162705   -1.6431570459    0.0000663754
     H     0.5724637358   -3.3002007220    0.0000218124
     H    -1.8346309432   -2.6301938341   -0.0000166708
