15
-1.1209548690019251e+03 frame 8   xyz file generated by TeraChem
     C     2.0900008762   -1.2645613729    0.0000095613
     C     0.8354089239   -0.6581152851    0.0000150696
     C     0.7121904417    0.7414191499    0.0000101934
     C     1.8377335438    1.5658359044   -0.0000011607
     C     3.0908391590    0.9555801489   -0.0000069594
     C     3.2173506140   -0.4417469514   -0.0000013781
     H     4.2047345988   -0.8924932973   -0.0000060297
     H     3.9819911702    1.5751955307   -0.0000160847
     H     1.7297899261    2.6455868463   -0.0000055381
     N    -0.6209436887    1.1415750320    0.0000174209
     C    -1.5656526758    0.1737238436    0.0000268191
     S    -3.2257888920    0.4005596190    0.0000348936
     S    -0.7645923610   -1.4051773755    0.0000266546
     H    -0.8955381280    2.1190513908    0.0000144873
     H     2.1849241921   -2.3453003833    0.0000135510
