20
-4.7819808513767850e+02 frame 8   xyz file generated by TeraChem
     C     0.4440258236    1.7986841070   -0.0000141357
     C     1.2776612221    0.6495233775    0.0000049245
     C     0.7511725991   -0.6935885776    0.0000742646
     C    -0.6109640714   -0.8894342447    0.0001249619
     C    -1.4496700303    0.2695578011    0.0001045591
     C    -0.9091199258    1.5983046629    0.0000352301
     H    -1.6083965265    2.4260945093    0.0000244338
     O    -2.7692773347    0.2114334182    0.0001430434
     C    -3.4550096853   -1.0624085589    0.0002342318
     H    -3.1950315298   -1.6249987544   -0.8992926690
     H    -4.5134187123   -0.8101696627    0.0002559317
     H    -3.1949706097   -1.6249003354    0.8998051107
     H    -1.0374381668   -1.8846914035    0.0001780904
     C     1.8959305126   -1.5856328532    0.0000741512
     C     3.0060545023   -0.7994774694    0.0000098925
     N     2.6169986693    0.5495956642   -0.0000312428
     H     3.2616040609    1.3333098672   -0.0000797445
     H     4.0557490283   -1.0525601645   -0.0000124487
     H     1.8670401737   -2.6654010630    0.0001171145
     H     0.8731927005    2.7946347799   -0.0000662996
