20
-4.7838662411747589e+02 frame 7   xyz file generated by TeraChem
     C     0.4572595741    1.7816893104   -0.0000150986
     C     1.2864804410    0.6535588435    0.0000035316
     C     0.7550626765   -0.6666224173    0.0000783220
     C    -0.6435064906   -0.8543780720    0.0001334406
     C    -1.4615164741    0.2709160829    0.0001129785
     C    -0.9143041247    1.5781730667    0.0000405579
     H    -1.5998176613    2.4199204691    0.0000287366
     O    -2.8349522394    0.2281051190    0.0001568082
     C    -3.4482605755   -1.0550601272    0.0002276933
     H    -3.1738853804   -1.6305888103   -0.8929914815
     H    -4.5246705691   -0.8749720320    0.0002537920
     H    -3.1738309767   -1.6305156893    0.8934773549
     H    -1.0563012436   -1.8563949297    0.0001894899
     C     1.8767871860   -1.5637505491    0.0000788805
     C     3.0137563609   -0.7882886685    0.0000075033
     N     2.6638541997    0.5445633078   -0.0000380279
     H     3.3132546140    1.3180207199   -0.0000930869
     H     4.0554816615   -1.0774023384   -0.0000163190
     H     1.8438249362   -2.6448644566    0.0001260382
     H     0.8714167854    2.7857662711   -0.0000717134
