13
-2.4950272124363818e+02 frame 5   xyz file generated by TeraChem
     C    -0.1384434886   -1.1209266300    0.0149999588
     C    -1.4586445865   -0.7131276200   -0.0153802691
     C    -1.4586774521    0.7130236680   -0.0155272437
     C    -0.1384944536    1.1208846186    0.0147739004
     N     0.6591145801   -0.0000007267    0.0389151952
     C     2.1127076709    0.0000225389   -0.0192441544
     H     2.4951855304   -0.8884082380    0.4883790790
     H     2.4695365733   -0.0003615236   -1.0551408451
     H     2.4951111851    0.8888732786    0.4876958484
     H     0.3046420809    2.1069432872    0.0250645549
     H    -2.3230780911    1.3643402876   -0.0224563249
     H    -2.3230163563   -1.3644839820   -0.0222121380
     H     0.3047395076   -2.1069648585    0.0252623385
