15
-7.9775762644079555e+02 frame 8   xyz file generated by TeraChem
     C     1.7399985261   -1.4585815152    0.0000177876
     C     0.5948123295   -0.6839636488   -0.0000095027
     C     0.6221495534    0.7397364606   -0.0000180912
     C     1.8292147019    1.4568839797    0.0000031954
     C     2.9757261053    0.6881904042    0.0000312548
     C     2.9340480124   -0.7405485581    0.0000378358
     H     3.8730434118   -1.2833778965    0.0000599123
     H     3.9444775807    1.1752574182    0.0000492090
     H     1.8444462994    2.5398825557   -0.0000020048
     N    -0.6824116312    1.1148747877   -0.0000459341
     C    -1.5021977490    0.0210087852   -0.0000543583
     S    -3.1483440421   -0.0352655789   -0.0000826731
     O    -0.7031281603   -1.0891590615   -0.0000301152
     H    -1.0351475540    2.0706581028   -0.0000609872
     H     1.7048081160   -2.5408652352    0.0000238715
