15
-7.9797365470689022e+02 frame 8   xyz file generated by TeraChem
     C     1.7480229450   -1.4368854251    0.0000188598
     C     0.6047810292   -0.6594887216   -0.0000080402
     C     0.6295028897    0.7352645896   -0.0000163340
     C     1.8299138757    1.4366944223    0.0000038954
     C     2.9986077927    0.6672886265    0.0000310001
     C     2.9610217715   -0.7357392166    0.0000380126
     H     3.8917399781   -1.2936733316    0.0000592470
     H     3.9596681493    1.1715878913    0.0000473965
     H     1.8556610794    2.5205676920   -0.0000011782
     N    -0.7103360591    1.1183261755   -0.0000447538
     C    -1.5175845551    0.0317472302   -0.0000554908
     S    -3.1821735164   -0.0515082015   -0.0000875430
     O    -0.7168176593   -1.0771006218   -0.0000297393
     H    -1.0634204176    2.0675360429   -0.0000606097
     H     1.7029081970   -2.5198861521    0.0000246777
