9
-2.2601887503410859e+02 frame 7   xyz file generated by TeraChem
     C     0.7061875332    0.9450901555    0.0000398115
     C    -0.7519392380    0.9068266376   -0.0000232784
     N    -1.1766334927   -0.3550412623   -0.0000176502
     C    -0.0637408346   -1.1092702571    0.0000375865
     N     1.0798929152   -0.3326179921    0.0000738528
     H     2.0360892247   -0.6828735241    0.0001215477
     H    -0.0255397276   -2.1907350644    0.0000555366
     H    -1.4141636990    1.7630154131   -0.0000666486
     H     1.3986917187    1.7760213939    0.0000582420
