9
-2.2624013181133699e+02 frame 7   xyz file generated by TeraChem
     C     0.6670775237    0.9700397314    0.0000276991
     C    -0.7063587000    0.9325239499   -0.0000120143
     N    -1.1560513344   -0.3763504955   -0.0000537913
     C    -0.0602565643   -1.1177511605    0.0000408393
     N     1.0637373446   -0.3500301132    0.0000745242
     H     2.0178558079   -0.6869407806    0.0001303991
     H    -0.0211153570   -2.1985542000    0.0000676411
     H    -1.3955100876    1.7666139203   -0.0000412310
     H     1.3794657671    1.7808646482    0.0000449338
