16
-3.6366247949315402e+02 frame 9   xyz file generated by TeraChem
     C     0.9098954809   -1.4216138898   -0.0000048215
     C     2.1375743284   -0.7073478110   -0.0000044352
     C     2.1805985914    0.6905604021   -0.0000063791
     C     1.0028870327    1.4413220329   -0.0000088137
     C    -0.2334525836    0.7550517642   -0.0000093177
     C    -0.2396810765   -0.6715106878   -0.0000072742
     N    -1.5879272932   -1.0731418820   -0.0000081695
     C    -2.3805773680   -0.0040194652   -0.0000105993
     C    -1.5771242010    1.1769704520   -0.0000114303
     H    -1.9574434293    2.1889035149   -0.0000133386
     H    -3.4578356853   -0.0954765935   -0.0000117173
     H    -1.9081971841   -2.0369584581   -0.0000073018
     H     1.0276376378    2.5259392144   -0.0000103213
     H     3.1402526051    1.1953908414   -0.0000059628
     H     3.0644163404   -1.2712893055   -0.0000025627
     H     0.8926581042   -2.5059309290   -0.0000032548
