16
-3.6385685845438559e+02 frame 7   xyz file generated by TeraChem
     C     0.9350322658   -1.4231393928   -0.0000047327
     C     2.1401035279   -0.7278200264   -0.0000044299
     C     2.1704540030    0.6840716872   -0.0000064144
     C     0.9964713197    1.4287684421   -0.0000087428
     C    -0.2399950160    0.7566692645   -0.0000092272
     C    -0.2452965383   -0.6707775102   -0.0000071539
     N    -1.5637629842   -1.0740626207   -0.0000079953
     C    -2.3832372112    0.0375348181   -0.0000107074
     C    -1.6152008136    1.1765364658   -0.0000114779
     H    -1.9831057659    2.1935828627   -0.0000134007
     H    -3.4578466589   -0.0804554151   -0.0000118609
     H    -1.8827007415   -2.0324558997   -0.0000074107
     H     1.0301842689    2.5152934039   -0.0000102572
     H     3.1301249845    1.1937534042   -0.0000060751
     H     3.0748785300   -1.2815233547   -0.0000026459
     H     0.9075781296   -2.5091269289   -0.0000031680
