15
-7.0648061102643123e+02 frame 6   xyz file generated by TeraChem
     C    -5.2482270152    1.4963760911    0.0000000019
     C    -6.4849664195    0.7898542698    0.0000000329
     C    -6.5268086050   -0.6019876244    0.0000000498
     C    -5.3414766360   -1.3441045062    0.0000000071
     C    -4.0984370336   -0.6639351859   -0.0000000348
     C    -4.0873506892    0.7569357469   -0.0000000450
     S    -2.4232460916    1.3676575317   -0.0000001091
     C    -1.8033840461   -0.2147877230    0.0000000265
     C    -2.7946742222   -1.2064723676   -0.0000000402
     H    -2.5674347937   -2.2662069089   -0.0000000189
     H    -0.7324381142   -0.3765719422    0.0000001113
     H    -5.3599918174   -2.4290417091   -0.0000000093
     H    -7.4822538798   -1.1142349585    0.0000000778
     H    -7.4076925362    1.3603338698    0.0000000663
     H    -5.2370982002    2.5809153165   -0.0000000163
