21
-5.1040636702482982e+02 frame 89   xyz file generated by TeraChem
     H    -7.6158641639   -2.9683506090   -3.6272191094
     H    -6.1077875365   -6.0775784319   -3.3052081069
     C    -7.1082856373   -2.6078658970   -2.7414419301
     H    -8.5058953384   -3.1714999992   -1.0772696698
     C    -5.6369507103   -5.7939731677   -2.3717397521
     H    -5.1789040299   -1.8649165771   -3.5425537166
     C    -7.5680729472   -2.7329107253   -1.3893628768
     C    -5.8148026725   -2.0201081969   -2.6782993392
     H    -7.2357433248   -6.1739026725   -0.8495095973
     H    -3.6474339627   -5.0397325196   -3.0629453960
     C    -6.2327583925   -5.8297928133   -1.0603778665
    Fe    -5.8090067935   -3.8432496292   -1.5422678990
     C    -4.3280586138   -5.2519446093   -2.2475185837
     C    -6.5598256838   -2.1939167082   -0.5222298636
     C    -5.4707484154   -1.7553183085   -1.3332321594
     C    -5.2864582289   -5.2910475808   -0.1402079488
     C    -4.1136196307   -4.9323041183   -0.8780924927
     H    -6.5954665787   -2.1545135452    0.5565060139
     H    -4.5273412030   -1.3444272609   -1.0017199430
     H    -5.4505615557   -5.1526949677    0.9183119998
     H    -3.2352145807   -4.4503516622   -0.4712217628
