21
-5.1040072326757900e+02 frame 17   xyz file generated by TeraChem
     H    -5.3010008594   -1.3820851536   -2.9512082443
     H    -4.8904663786   -4.6157069733   -4.1286879164
     C    -5.5424936239   -1.7568535874   -1.9653463037
     H    -7.7798784395   -1.8712823062   -2.0067411085
     C    -5.3277578130   -5.0272760171   -3.2289777692
     H    -3.5285925257   -2.1166152750   -1.0668472640
     C    -6.8537356431   -2.0303007476   -1.4712013455
     C    -4.6058041392   -2.1407541957   -0.9673238115
     H    -7.5315060412   -4.7631603316   -3.5659058531
     H    -3.5327780281   -5.5672960238   -2.0088548670
     C    -6.7240370404   -5.0941592140   -2.9274585882
    Fe    -5.8187668672   -3.8396520980   -1.5432887153
     C    -4.6096517079   -5.5416509074   -2.1116173794
     C    -6.7228820345   -2.5845879040   -0.1569944359
     C    -5.3278080830   -2.6523012746    0.1483163173
     C    -6.8584694644   -5.6508263434   -1.6146918610
     C    -5.5496667865   -5.9269742268   -1.1176176691
     H    -7.5322641656   -2.9144081185    0.4796626191
     H    -4.8935893401   -3.0653251189    1.0488880679
     H    -7.7860207764   -5.8075895456   -1.0808670340
     H    -5.3116302423   -6.3015946373   -0.1308368381
