21
-5.1056566224638891e+02 frame 152   xyz file generated by TeraChem
     H    -6.2254549198   -6.3172923558   -0.1946102783
     H    -8.5725427523   -4.0736227813   -0.9503037149
     C    -5.4595124164   -5.7033204962   -0.6487187782
     H    -5.4524257386   -6.3723731778   -2.8087083801
     C    -7.8392857052   -3.4216658668   -1.4085076437
     H    -4.8322251171   -4.3507178340    0.9908673490
     C    -5.0625079026   -5.7228493457   -2.0368614841
     C    -4.7281069967   -4.6535901456   -0.0451724911
     H    -7.8355121639   -4.0663862491   -3.5650293946
     H    -7.1020502080   -2.2348098251    0.3572509465
     C    -7.4518184151   -3.4058926061   -2.8001145799
    Fe    -5.8202977216   -3.8630413318   -1.5561625357
     C    -7.0639256171   -2.4462245395   -0.7035641538
     C    -4.0524649491   -4.7234449913   -2.2193525725
     C    -3.8522372839   -4.0535035097   -0.9844928807
     C    -6.4169877980   -2.4319778541   -2.9287631403
     C    -6.1857430374   -1.8363319722   -1.6517810189
     H    -3.5667088336   -4.4674623804   -3.1515749858
     H    -3.1920461707   -3.2211805841   -0.7821542384
     H    -5.8814291389   -2.1993696470   -3.8394678442
     H    -5.4355171141   -1.0853425063   -1.4403781801
