21
-5.1040271750990541e+02 frame 19   xyz file generated by TeraChem
     H    -5.7434896384   -1.1951474902   -2.7271087262
     H    -6.7641598627   -4.2893880222   -4.2602919206
     C    -5.4744957131   -1.7012498873   -1.8020831180
     H    -7.3919214818   -1.6810901346   -0.6989054374
     C    -6.6135364148   -4.7873344425   -3.3057469177
     H    -3.4222808113   -2.3763189509   -2.2769822863
     C    -6.3538485988   -1.9806445620   -0.7392688988
     C    -4.2365060190   -2.3404975341   -1.5591349269
     H    -8.4964762123   -4.3392661589   -2.1918794827
     H    -4.5341713858   -5.5617111143   -3.5173761295
     C    -7.5153529241   -4.7944390118   -2.1695586078
    Fe    -5.8091274935   -3.8283621566   -1.4747930262
     C    -5.4259539042   -5.4595182161   -2.9068149617
     C    -5.6364884708   -2.7862186837    0.2088487342
     C    -4.3226714207   -3.0043150063   -0.3133192921
     C    -6.9040845917   -5.5449574400   -1.1184551200
     C    -5.5955380315   -5.9318264039   -1.5673882092
     H    -6.0324540871   -3.1883603245    1.1253966071
     H    -3.5415443238   -3.6232812390    0.1007158537
     H    -7.3595332165   -5.7572155639   -0.1671033797
     H    -4.8551653982   -6.4792576569   -1.0063507541
